218
-1448.85703
C    -3.873000000    -2.332000000     2.797000000
H    -4.078000000    -2.788000000     1.832000000
C    -3.898000000    -0.894000000     2.910000000
C    -3.504000000    -0.316000000     4.152000000
H    -3.479000000     0.761000000     4.301000000
C    -4.119000000     0.001000000     1.662000000
O    -5.076000000    -0.560000000     0.636000000
H    -3.138000000     0.068000000     1.169000000
O    -4.521000000     1.326000000     2.020000000
C    -3.983000000     2.431000000     1.355000000
C    -2.918000000     2.997000000     2.069000000
H    -2.685000000     2.736000000     3.098000000
C    -2.099000000     3.903000000     1.385000000
O    -1.045000000     4.416000000     2.020000000
C    -2.367000000     4.268000000     0.056000000
C    -1.500000000     5.324000000    -0.623000000
H    -2.047000000     5.813000000    -1.432000000
C    -0.237000000     4.666000000    -1.258000000
C    -0.204000000     4.135000000    -2.518000000
H    -1.065000000     4.187000000    -3.179000000
H    -1.243000000     6.073000000     0.129000000
C    -3.389000000     3.654000000    -0.697000000
H    -3.554000000     3.882000000    -1.747000000
C    -4.163000000     2.656000000    -0.013000000
C    -5.245000000     1.953000000    -0.800000000
H    -5.620000000     2.720000000    -1.480000000
H    -6.182000000     1.707000000    -0.296000000
C    -4.714000000     0.685000000    -1.428000000
C    -4.099000000     0.723000000    -2.677000000
H    -4.037000000     1.608000000    -3.306000000
C    -4.699000000    -0.549000000    -0.681000000
C    -4.075000000    -1.684000000    -1.149000000
H    -3.940000000    -2.633000000    -0.636000000
C    -3.461000000    -1.603000000    -2.388000000
O    -2.846000000    -2.789000000    -2.806000000
C    -1.412000000    -2.736000000    -3.000000000
C    -0.783000000    -4.082000000    -2.635000000
C     0.292000000    -4.661000000    -3.303000000
H     0.592000000    -4.276000000    -4.274000000
C    -1.136000000    -4.631000000    -1.362000000
H    -1.859000000    -4.163000000    -0.698000000
O    -0.937000000    -2.372000000    -4.362000000
H    -1.029000000    -2.033000000    -2.245000000
C    -3.482000000    -0.462000000    -3.124000000
C    -2.966000000    -0.467000000    -4.570000000
H    -3.503000000     0.258000000    -5.186000000
H    -3.302000000    -1.443000000    -4.926000000
C    -1.474000000    -0.089000000    -4.615000000
C    -1.072000000     1.256000000    -4.724000000
H    -1.878000000     1.984000000    -4.759000000
C    -0.500000000    -1.078000000    -4.514000000
C     0.873000000    -0.788000000    -4.566000000
H     1.504000000    -1.646000000    -4.352000000
C     1.300000000     0.578000000    -4.638000000
O     2.645000000     0.806000000    -4.283000000
C     2.890000000     1.150000000    -2.882000000
C     4.048000000     0.388000000    -2.250000000
C     4.091000000    -1.031000000    -2.326000000
H     3.232000000    -1.529000000    -2.769000000
C     4.951000000     0.981000000    -1.474000000
H     4.832000000     2.058000000    -1.387000000
O     3.041000000     2.572000000    -2.781000000
H     1.979000000     0.816000000    -2.364000000
C     0.320000000     1.585000000    -4.718000000
C     0.813000000     3.026000000    -4.601000000
H     0.069000000     3.576000000    -5.180000000
H     1.741000000     3.173000000    -5.157000000
C     0.948000000     3.557000000    -3.117000000
C     2.077000000     3.335000000    -2.355000000
C     2.013000000     3.849000000    -1.028000000
H     2.950000000     3.835000000    -0.477000000
C     0.923000000     4.540000000    -0.553000000
O     0.938000000     4.755000000     0.774000000
C     0.268000000     3.878000000     1.602000000
H     0.153000000     2.948000000     1.026000000
C     1.144000000     3.477000000     2.809000000
C     0.588000000     3.127000000     4.051000000
H    -0.488000000     3.167000000     4.199000000
C     2.521000000     3.398000000     2.751000000
H     3.059000000     3.626000000     1.835000000
C     3.290000000     3.030000000     3.865000000
O     4.667000000     2.892000000     3.766000000
C     2.714000000     2.725000000     5.092000000
H     3.412000000     2.455000000     5.880000000
C     1.349000000     2.759000000     5.180000000
O     0.765000000     2.483000000     6.388000000
C    -0.608000000     2.233000000     6.650000000
C    -1.169000000     0.981000000     6.349000000
H    -0.623000000     0.120000000     5.973000000
C    -1.389000000     3.369000000     6.887000000
H    -0.948000000     4.361000000     6.934000000
C    -2.747000000     3.238000000     7.063000000
H    -3.423000000     4.020000000     7.399000000
C    -3.263000000     1.946000000     6.905000000
H    -4.313000000     1.736000000     7.092000000
C    -2.509000000     0.824000000     6.571000000
O    -3.138000000    -0.392000000     6.506000000
C    -3.277000000    -1.058000000     5.305000000
C    -3.255000000    -2.458000000     5.182000000
H    -3.194000000    -3.041000000     6.098000000
C    -3.408000000    -3.090000000     3.933000000
O    -3.439000000    -4.461000000     3.867000000
C    -3.368000000    -5.146000000     2.685000000
C    -2.128000000    -5.309000000     2.069000000
H    -1.211000000    -5.004000000     2.567000000
C    -4.477000000    -5.662000000     2.108000000
H    -5.375000000    -5.502000000     2.699000000
C    -4.425000000    -6.278000000     0.886000000
H    -5.368000000    -6.692000000     0.538000000
C    -3.213000000    -6.481000000     0.233000000
H    -3.097000000    -7.012000000    -0.708000000
C    -2.050000000    -6.038000000     0.871000000
O    -0.832000000    -6.234000000     0.357000000
C    -0.426000000    -5.697000000    -0.841000000
C     0.577000000    -6.297000000    -1.588000000
H     0.961000000    -7.238000000    -1.204000000
C     1.007000000    -5.716000000    -2.794000000
O     2.046000000    -6.252000000    -3.490000000
C     3.149000000    -5.369000000    -3.719000000
C     3.745000000    -4.810000000    -2.664000000
H     3.198000000    -4.936000000    -1.733000000
C     3.670000000    -5.173000000    -5.005000000
H     3.141000000    -5.544000000    -5.879000000
C     4.836000000    -4.461000000    -5.176000000
H     5.304000000    -4.278000000    -6.140000000
C     5.400000000    -3.837000000    -4.129000000
H     6.235000000    -3.159000000    -4.289000000
C     4.863000000    -4.014000000    -2.891000000
O     5.300000000    -3.176000000    -1.946000000
C     5.110000000    -1.832000000    -1.773000000
C     6.031000000    -1.126000000    -0.973000000
H     6.768000000    -1.651000000    -0.370000000
C     5.942000000     0.214000000    -0.778000000
O     6.888000000     0.895000000     0.073000000
C     6.569000000     1.959000000     0.794000000
C     6.978000000     3.243000000     0.422000000
H     7.628000000     3.314000000    -0.446000000
C     6.576000000     4.358000000     1.080000000
H     6.962000000     5.338000000     0.811000000
C     5.800000000     4.297000000     2.228000000
H     5.454000000     5.205000000     2.717000000
C     5.364000000     3.037000000     2.608000000
C     5.715000000     1.856000000     1.880000000
H     5.385000000     0.846000000     2.110000000
C     0.881000000    -2.002000000     1.170000000
H     0.695000000    -2.981000000     1.604000000
C    -0.102000000    -1.319000000     0.423000000
H    -1.091000000    -1.767000000     0.381000000
C     0.240000000    -0.110000000    -0.133000000
C    -0.882000000     0.705000000    -0.792000000
H    -1.727000000     0.104000000    -1.135000000
H    -1.332000000     1.610000000    -0.378000000
H    -0.480000000     0.961000000    -1.775000000
C     1.491000000     0.492000000     0.090000000
H     1.683000000     1.462000000    -0.363000000
C     2.478000000    -0.207000000     0.704000000
H     3.472000000     0.233000000     0.727000000
C     2.208000000    -1.545000000     1.122000000
C     3.319000000    -2.334000000     1.787000000
O     4.372000000    -1.744000000     2.097000000
O     3.163000000    -3.533000000     2.027000000
O     4.474000000    -4.357000000     4.316000000
H     3.972000000    -3.903000000     3.640000000
H     5.209000000    -3.772000000     4.502000000
O     4.008000000    -4.140000000     7.174000000
H     3.842000000    -4.144000000     6.231000000
H     4.363000000    -5.009000000     7.358000000
O     5.353000000    -7.033000000     4.057000000
H     4.777000000    -6.329000000     4.355000000
H     5.973000000    -7.155000000     4.776000000
O     8.477000000    -3.612000000     5.285000000
H     9.237000000    -3.145000000     4.938000000
H     7.826000000    -3.561000000     4.585000000
O     3.551000000    -8.829000000     2.804000000
H     3.886000000    -7.965000000     3.045000000
H     3.740000000    -9.380000000     3.563000000
O     0.817000000    -0.268000000     3.596000000
H     1.553000000     0.341000000     3.537000000
H     0.788000000    -0.693000000     2.739000000
O     0.270000000    -2.178000000     5.570000000
H     0.626000000    -2.960000000     5.149000000
H     0.415000000    -1.476000000     4.936000000
O     4.680000000    -0.623000000     4.467000000
H     4.594000000    -1.010000000     3.596000000
H     3.907000000    -0.927000000     4.943000000
O     6.588000000    -3.327000000     2.188000000
H     6.736000000    -3.735000000     1.335000000
H     5.811000000    -2.782000000     2.062000000
O     5.251000000    -6.484000000    -0.418000000
H     4.550000000    -5.926000000    -0.082000000
H     5.579000000    -6.948000000     0.353000000
O     6.589000000     0.827000000     5.208000000
H     7.090000000     0.943000000     4.401000000
H     5.867000000     0.249000000     4.960000000
O     6.324000000    -7.637000000     1.699000000
H     6.104000000    -7.088000000     2.452000000
H     5.693000000    -8.355000000     1.733000000
O     8.732000000     0.101000000     3.019000000
H     9.166000000    -0.735000000     3.189000000
H     8.164000000    -0.072000000     2.268000000
O     1.367000000    -4.235000000     3.916000000
H     1.986000000    -3.921000000     3.257000000
H     1.163000000    -5.130000000     3.646000000
O     7.326000000    -4.536000000    -0.198000000
H     6.595000000    -5.037000000    -0.559000000
H     7.737000000    -4.128000000    -0.960000000
O     2.468000000    -8.859000000     0.361000000
H     2.942000000    -9.057000000     1.168000000
H     2.303000000    -7.917000000     0.404000000
O     2.636000000    -0.377000000     6.481000000
H     2.286000000     0.509000000     6.390000000
H     1.861000000    -0.931000000     6.577000000
O     0.636000000    -6.733000000     2.465000000
H     0.240000000    -7.414000000     3.009000000
H     0.069000000    -6.681000000     1.696000000
O     3.009000000    -6.100000000     1.515000000
H     2.365000000    -6.349000000     2.178000000
H     3.127000000    -5.158000000     1.638000000
