218
-1472.04336
C    -3.931000000     1.959000000     0.503000000
H    -3.274000000     2.716000000     0.082000000
C    -3.697000000     1.609000000     1.812000000
C    -4.514000000     0.645000000     2.423000000
H    -4.255000000     0.318000000     3.427000000
C    -2.458000000     2.173000000     2.500000000
O    -2.132000000     3.490000000     2.047000000
H    -1.639000000     1.490000000     2.230000000
O    -2.557000000     2.143000000     3.979000000
C    -1.484000000     1.586000000     4.617000000
C    -1.455000000     0.181000000     4.692000000
H    -2.386000000    -0.375000000     4.763000000
C    -0.286000000    -0.535000000     4.811000000
O    -0.379000000    -1.887000000     4.729000000
C     0.942000000     0.140000000     4.888000000
C     2.201000000    -0.587000000     5.062000000
H     3.045000000    -0.081000000     5.535000000
C     2.785000000    -1.109000000     3.772000000
C     3.728000000    -0.234000000     3.134000000
H     4.130000000     0.688000000     3.546000000
H     1.991000000    -1.466000000     5.675000000
C     0.952000000     1.576000000     4.816000000
H     1.945000000     2.013000000     4.745000000
C    -0.263000000     2.297000000     4.595000000
C    -0.158000000     3.761000000     4.180000000
H     0.590000000     4.304000000     4.760000000
H    -1.127000000     4.258000000     4.260000000
C     0.202000000     3.943000000     2.704000000
C     1.432000000     4.297000000     2.307000000
H     2.221000000     4.404000000     3.048000000
C    -0.809000000     3.819000000     1.767000000
C    -0.541000000     4.229000000     0.445000000
H    -1.365000000     4.176000000    -0.263000000
C     0.720000000     4.492000000     0.022000000
O     0.810000000     4.628000000    -1.316000000
C     1.395000000     3.503000000    -2.041000000
C     0.598000000     3.370000000    -3.346000000
C     1.141000000     2.490000000    -4.325000000
H     2.055000000     1.905000000    -4.261000000
C    -0.639000000     3.992000000    -3.538000000
H    -1.145000000     4.482000000    -2.710000000
O     2.805000000     3.695000000    -2.184000000
H     1.319000000     2.542000000    -1.510000000
C     1.736000000     4.505000000     0.955000000
C     3.197000000     4.613000000     0.537000000
H     3.779000000     4.988000000     1.382000000
H     3.245000000     5.327000000    -0.287000000
C     3.666000000     3.299000000     0.001000000
C     4.265000000     2.367000000     0.805000000
H     4.235000000     2.585000000     1.869000000
C     3.581000000     2.991000000    -1.321000000
C     4.165000000     1.815000000    -1.881000000
H     4.081000000     1.573000000    -2.937000000
C     4.784000000     0.869000000    -1.041000000
O     4.911000000    -0.367000000    -1.466000000
C     3.849000000    -1.366000000    -1.120000000
C     3.604000000    -2.275000000    -2.299000000
C     3.861000000    -1.873000000    -3.604000000
H     4.496000000    -1.009000000    -3.780000000
C     2.936000000    -3.485000000    -2.025000000
H     2.776000000    -3.899000000    -1.033000000
O     4.298000000    -2.104000000     0.057000000
H     2.942000000    -0.783000000    -0.902000000
C     4.775000000     1.189000000     0.316000000
C     5.349000000     0.261000000     1.346000000
H     5.845000000     0.800000000     2.156000000
H     6.143000000    -0.324000000     0.877000000
C     4.280000000    -0.631000000     1.942000000
C     3.831000000    -1.775000000     1.309000000
C     2.843000000    -2.530000000     1.848000000
H     2.496000000    -3.422000000     1.333000000
C     2.249000000    -2.197000000     3.056000000
O     1.264000000    -3.052000000     3.468000000
C    -0.046000000    -2.510000000     3.437000000
H    -0.165000000    -1.684000000     2.720000000
C    -1.067000000    -3.588000000     3.026000000
C    -2.323000000    -3.690000000     3.597000000
H    -2.557000000    -3.012000000     4.415000000
C    -0.853000000    -4.330000000     1.835000000
H     0.125000000    -4.285000000     1.363000000
C    -1.810000000    -5.155000000     1.283000000
O    -1.518000000    -5.895000000     0.167000000
C    -3.047000000    -5.149000000     1.828000000
H    -3.840000000    -5.794000000     1.459000000
C    -3.331000000    -4.476000000     3.002000000
O    -4.527000000    -4.709000000     3.615000000
C    -5.346000000    -3.657000000     3.942000000
C    -5.638000000    -2.734000000     2.935000000
H    -5.321000000    -2.942000000     1.916000000
C    -5.915000000    -3.567000000     5.193000000
H    -5.648000000    -4.202000000     6.034000000
C    -6.647000000    -2.454000000     5.519000000
H    -7.137000000    -2.401000000     6.488000000
C    -6.944000000    -1.497000000     4.524000000
H    -7.541000000    -0.615000000     4.744000000
C    -6.405000000    -1.630000000     3.253000000
O    -6.597000000    -0.690000000     2.299000000
C    -5.680000000     0.172000000     1.759000000
C    -5.861000000     0.541000000     0.422000000
H    -6.716000000     0.142000000    -0.119000000
C    -5.040000000     1.502000000    -0.184000000
O    -5.270000000     1.928000000    -1.559000000
C    -4.867000000     3.157000000    -2.051000000
C    -4.027000000     3.219000000    -3.154000000
H    -3.708000000     2.292000000    -3.624000000
C    -5.301000000     4.379000000    -1.553000000
H    -6.040000000     4.407000000    -0.755000000
C    -4.811000000     5.631000000    -2.014000000
H    -5.114000000     6.523000000    -1.470000000
C    -3.869000000     5.658000000    -3.056000000
H    -3.292000000     6.535000000    -3.341000000
C    -3.464000000     4.469000000    -3.666000000
O    -2.598000000     4.432000000    -4.767000000
C    -1.336000000     3.873000000    -4.675000000
C    -0.724000000     3.190000000    -5.691000000
H    -1.240000000     3.252000000    -6.645000000
C     0.456000000     2.417000000    -5.519000000
O     0.797000000     1.602000000    -6.594000000
C     1.977000000     0.974000000    -6.767000000
C     2.313000000    -0.232000000    -6.168000000
H     1.643000000    -0.567000000    -5.381000000
C     2.764000000     1.355000000    -7.921000000
H     2.444000000     2.094000000    -8.651000000
C     3.759000000     0.533000000    -8.440000000
H     4.203000000     0.825000000    -9.389000000
C     4.098000000    -0.624000000    -7.770000000
H     4.769000000    -1.343000000    -8.232000000
C     3.381000000    -0.984000000    -6.641000000
O     3.611000000    -2.231000000    -6.051000000
C     3.472000000    -2.626000000    -4.731000000
C     2.948000000    -3.883000000    -4.446000000
H     2.507000000    -4.469000000    -5.249000000
C     2.739000000    -4.339000000    -3.125000000
O     2.108000000    -5.529000000    -3.002000000
C     1.630000000    -6.010000000    -1.805000000
C     2.520000000    -6.591000000    -0.934000000
H     3.583000000    -6.614000000    -1.160000000
C     1.970000000    -7.017000000     0.288000000
H     2.644000000    -7.422000000     1.038000000
C     0.665000000    -6.835000000     0.618000000
H     0.278000000    -7.139000000     1.587000000
C    -0.176000000    -6.148000000    -0.220000000
C     0.268000000    -5.742000000    -1.510000000
H    -0.341000000    -5.161000000    -2.198000000
C    -0.168000000    -1.437000000    -2.316000000
H     0.281000000    -1.748000000    -3.255000000
C     0.509000000    -0.618000000    -1.427000000
H     1.442000000    -0.202000000    -1.797000000
C     0.001000000    -0.353000000    -0.202000000
C     0.726000000     0.685000000     0.653000000
H     0.655000000     0.408000000     1.707000000
H     1.718000000     0.878000000     0.239000000
H     0.180000000     1.613000000     0.469000000
C    -1.177000000    -1.029000000     0.119000000
H    -1.632000000    -0.770000000     1.071000000
C    -1.917000000    -1.874000000    -0.748000000
H    -2.871000000    -2.281000000    -0.423000000
C    -1.384000000    -2.075000000    -1.996000000
C    -2.190000000    -2.946000000    -2.931000000
O    -3.265000000    -3.489000000    -2.556000000
O    -1.840000000    -3.075000000    -4.052000000
O    -3.295000000    -6.231000000    -1.967000000
H    -2.821000000    -6.233000000    -1.135000000
H    -3.281000000    -5.316000000    -2.249000000
O    -8.280000000    -3.593000000    -0.645000000
H    -7.816000000    -2.980000000    -1.216000000
H    -8.543000000    -3.065000000     0.109000000
O    -4.263000000    -4.843000000    -7.798000000
H    -4.394000000    -4.537000000    -6.900000000
H    -3.506000000    -4.347000000    -8.111000000
O    -7.792000000    -4.565000000    -4.037000000
H    -7.183000000    -4.102000000    -4.612000000
H    -7.372000000    -5.409000000    -3.872000000
O    -5.146000000    -3.724000000    -0.511000000
H    -4.384000000    -3.522000000    -1.053000000
H    -5.847000000    -3.179000000    -0.870000000
O    -6.537000000    -5.740000000     0.831000000
H    -6.021000000    -4.984000000     0.549000000
H    -7.137000000    -5.904000000     0.104000000
O    -1.067000000    -5.278000000    -5.047000000
H    -0.512000000    -5.048000000    -5.791000000
H    -1.249000000    -4.443000000    -4.616000000
O    -4.707000000    -0.948000000    -4.144000000
H    -4.306000000    -1.716000000    -3.737000000
H    -4.285000000    -0.883000000    -5.001000000
O    -4.310000000    -4.164000000    -5.041000000
H    -4.683000000    -5.009000000    -4.790000000
H    -3.627000000    -4.000000000    -4.390000000
O    -2.837000000    -7.131000000    -5.215000000
H    -2.710000000    -7.356000000    -6.137000000
H    -2.404000000    -6.283000000    -5.114000000
O    -3.593000000    -0.497000000    -6.710000000
H    -2.724000000    -0.175000000    -6.949000000
H    -3.875000000    -1.011000000    -7.467000000
O    -6.959000000    -1.443000000    -2.339000000
H    -6.251000000    -1.472000000    -2.981000000
H    -7.737000000    -1.216000000    -2.849000000
O    -6.684000000    -2.706000000    -5.939000000
H    -5.820000000    -3.118000000    -5.925000000
H    -6.690000000    -2.190000000    -6.745000000
O     0.587000000    -4.224000000    -7.385000000
H     0.420000000    -4.995000000    -7.927000000
H     1.382000000    -3.840000000    -7.754000000
O    -5.672000000    -6.170000000    -3.145000000
H    -4.926000000    -6.364000000    -2.577000000
H    -5.606000000    -6.811000000    -3.853000000
O    -1.805000000    -8.488000000    -2.957000000
H    -2.217000000    -7.688000000    -3.284000000
H    -2.388000000    -8.791000000    -2.262000000
O    -1.216000000     0.390000000    -7.767000000
H    -1.087000000    -0.213000000    -7.035000000
H    -0.471000000     0.990000000    -7.716000000
O     0.188000000    -7.725000000    -4.874000000
H    -0.342000000    -8.251000000    -4.276000000
H    -0.088000000    -6.823000000    -4.709000000
O    -0.670000000    -1.821000000    -6.347000000
H    -1.008000000    -2.018000000    -5.473000000
H    -0.218000000    -2.622000000    -6.614000000
