218
-1437.08759
C    -3.965000000     2.590000000     0.540000000
H    -3.177000000     3.115000000     0.006000000
C    -3.636000000     2.085000000     1.837000000
C    -4.531000000     1.239000000     2.455000000
H    -4.495000000     0.847000000     3.468000000
C    -2.298000000     2.319000000     2.465000000
O    -1.950000000     3.761000000     2.369000000
H    -1.666000000     1.745000000     1.772000000
O    -2.207000000     1.913000000     3.834000000
C    -1.011000000     1.368000000     4.370000000
C    -1.131000000    -0.024000000     4.570000000
H    -2.084000000    -0.536000000     4.457000000
C     0.035000000    -0.748000000     4.895000000
O    -0.111000000    -2.133000000     4.925000000
C     1.246000000    -0.088000000     4.855000000
C     2.540000000    -0.764000000     5.021000000
H     3.181000000    -0.018000000     5.496000000
C     3.083000000    -1.252000000     3.700000000
C     4.097000000    -0.553000000     2.990000000
H     4.483000000     0.336000000     3.484000000
H     2.505000000    -1.649000000     5.660000000
C     1.339000000     1.274000000     4.665000000
H     2.296000000     1.790000000     4.641000000
C     0.179000000     2.037000000     4.538000000
C     0.198000000     3.558000000     4.336000000
H     0.950000000     4.033000000     4.969000000
H    -0.684000000     4.070000000     4.726000000
C     0.373000000     3.979000000     2.867000000
C     1.700000000     4.061000000     2.388000000
H     2.549000000     3.844000000     3.031000000
C    -0.656000000     4.094000000     1.954000000
C    -0.463000000     4.457000000     0.644000000
H    -1.301000000     4.493000000    -0.047000000
C     0.833000000     4.601000000     0.149000000
O     1.046000000     4.793000000    -1.161000000
C     1.413000000     3.633000000    -1.989000000
C     0.425000000     3.489000000    -3.237000000
C     0.591000000     2.555000000    -4.271000000
H     1.476000000     1.925000000    -4.296000000
C    -0.632000000     4.387000000    -3.429000000
H    -0.883000000     5.114000000    -2.662000000
O     2.746000000     3.564000000    -2.291000000
H     1.177000000     2.739000000    -1.394000000
C     1.879000000     4.467000000     1.043000000
C     3.369000000     4.568000000     0.557000000
H     4.016000000     4.873000000     1.382000000
H     3.449000000     5.461000000    -0.066000000
C     3.829000000     3.259000000    -0.103000000
C     4.631000000     2.386000000     0.679000000
H     4.863000000     2.676000000     1.701000000
C     3.426000000     2.832000000    -1.328000000
C     3.706000000     1.617000000    -1.838000000
H     3.383000000     1.398000000    -2.853000000
C     4.472000000     0.743000000    -1.077000000
O     4.622000000    -0.523000000    -1.564000000
C     3.748000000    -1.647000000    -1.165000000
C     3.335000000    -2.509000000    -2.370000000
C     3.493000000    -2.061000000    -3.677000000
H     3.965000000    -1.098000000    -3.856000000
C     2.426000000    -3.553000000    -2.133000000
H     2.321000000    -3.896000000    -1.107000000
O     4.245000000    -2.410000000    -0.119000000
H     2.823000000    -1.117000000    -0.891000000
C     4.981000000     1.110000000     0.222000000
C     5.555000000    -0.002000000     1.104000000
H     6.313000000     0.359000000     1.801000000
H     6.232000000    -0.668000000     0.566000000
C     4.481000000    -0.902000000     1.735000000
C     3.963000000    -2.046000000     1.166000000
C     2.924000000    -2.804000000     1.867000000
H     2.480000000    -3.647000000     1.343000000
C     2.571000000    -2.427000000     3.142000000
O     1.682000000    -3.257000000     3.733000000
C     0.309000000    -2.715000000     3.626000000
H     0.167000000    -2.014000000     2.790000000
C    -0.671000000    -3.799000000     3.094000000
C    -2.053000000    -3.611000000     3.219000000
H    -2.361000000    -2.648000000     3.617000000
C    -0.277000000    -4.936000000     2.447000000
H     0.764000000    -5.213000000     2.297000000
C    -1.210000000    -5.813000000     1.859000000
O    -0.885000000    -6.826000000     1.000000000
C    -2.530000000    -5.697000000     2.142000000
H    -3.242000000    -6.463000000     1.848000000
C    -2.981000000    -4.540000000     2.705000000
O    -4.376000000    -4.372000000     2.846000000
C    -5.035000000    -3.285000000     3.343000000
C    -5.349000000    -2.201000000     2.593000000
H    -5.153000000    -2.115000000     1.528000000
C    -5.151000000    -3.183000000     4.731000000
H    -4.735000000    -4.004000000     5.310000000
C    -5.876000000    -2.204000000     5.214000000
H    -6.006000000    -2.117000000     6.290000000
C    -6.306000000    -1.123000000     4.521000000
H    -6.834000000    -0.351000000     5.074000000
C    -6.084000000    -1.158000000     3.142000000
O    -6.453000000    -0.056000000     2.431000000
C    -5.619000000     0.767000000     1.725000000
C    -5.985000000     1.317000000     0.475000000
H    -6.833000000     0.873000000    -0.040000000
C    -5.154000000     2.258000000    -0.140000000
O    -5.404000000     2.540000000    -1.480000000
C    -5.079000000     3.710000000    -2.101000000
C    -3.967000000     3.744000000    -2.844000000
H    -3.275000000     2.938000000    -3.072000000
C    -5.712000000     4.811000000    -1.622000000
H    -6.528000000     4.753000000    -0.907000000
C    -5.399000000     6.000000000    -2.192000000
H    -5.824000000     6.899000000    -1.753000000
C    -4.406000000     6.082000000    -3.143000000
H    -4.046000000     7.054000000    -3.468000000
C    -3.653000000     4.955000000    -3.467000000
O    -2.669000000     5.014000000    -4.414000000
C    -1.558000000     4.247000000    -4.446000000
C    -1.411000000     3.239000000    -5.422000000
H    -2.070000000     3.036000000    -6.263000000
C    -0.269000000     2.396000000    -5.298000000
O    -0.069000000     1.426000000    -6.302000000
C     1.182000000     0.802000000    -6.623000000
C     1.461000000    -0.459000000    -6.238000000
H     0.681000000    -1.033000000    -5.744000000
C     2.083000000     1.522000000    -7.371000000
H     1.933000000     2.578000000    -7.579000000
C     3.415000000     0.990000000    -7.586000000
H     4.192000000     1.515000000    -8.136000000
C     3.665000000    -0.302000000    -7.180000000
H     4.639000000    -0.772000000    -7.294000000
C     2.728000000    -1.053000000    -6.485000000
O     3.113000000    -2.289000000    -6.031000000
C     2.926000000    -2.730000000    -4.741000000
C     2.099000000    -3.841000000    -4.576000000
H     1.748000000    -4.412000000    -5.431000000
C     1.781000000    -4.198000000    -3.261000000
O     0.917000000    -5.269000000    -3.073000000
C     0.944000000    -6.125000000    -1.948000000
C     1.893000000    -7.127000000    -1.960000000
H     2.666000000    -7.151000000    -2.723000000
C     2.008000000    -8.078000000    -0.880000000
H     2.800000000    -8.821000000    -0.824000000
C     1.183000000    -7.848000000     0.158000000
H     1.238000000    -8.486000000     1.037000000
C     0.098000000    -6.909000000     0.060000000
C    -0.038000000    -6.029000000    -0.989000000
H    -0.822000000    -5.306000000    -1.201000000
C    -0.339000000    -0.980000000    -2.281000000
H    -0.148000000    -0.913000000    -3.349000000
C     0.367000000    -0.226000000    -1.373000000
H     1.100000000     0.478000000    -1.759000000
C     0.212000000    -0.296000000     0.071000000
C     1.036000000     0.581000000     1.057000000
H     0.543000000     1.031000000     1.921000000
H     1.872000000     0.006000000     1.462000000
H     1.301000000     1.428000000     0.421000000
C    -0.885000000    -1.041000000     0.532000000
H    -1.215000000    -1.008000000     1.567000000
C    -1.705000000    -1.801000000    -0.415000000
H    -2.488000000    -2.454000000    -0.040000000
C    -1.374000000    -1.866000000    -1.793000000
C    -2.152000000    -2.845000000    -2.726000000
O    -2.980000000    -3.564000000    -2.204000000
O    -2.129000000    -2.743000000    -3.971000000
O    -3.259000000    -6.167000000    -1.715000000
H    -3.163000000    -6.186000000    -0.763000000
H    -3.084000000    -5.257000000    -1.956000000
O    -6.699000000    -1.534000000    -1.539000000
H    -5.908000000    -1.107000000    -1.867000000
H    -6.909000000    -2.191000000    -2.202000000
O    -6.205000000    -0.809000000    -5.895000000
H    -5.735000000    -1.339000000    -5.250000000
H    -5.544000000    -0.209000000    -6.240000000
O    -7.375000000    -3.940000000    -2.733000000
H    -6.979000000    -4.674000000    -2.262000000
H    -6.757000000    -3.747000000    -3.438000000
O    -4.811000000    -3.828000000    -0.409000000
H    -4.108000000    -3.825000000    -1.059000000
H    -5.465000000    -3.225000000    -0.762000000
O    -5.544000000    -7.614000000    -5.094000000
H    -6.211000000    -7.414000000    -5.750000000
H    -4.971000000    -6.847000000    -5.092000000
O    -6.187000000    -5.997000000     1.133000000
H    -5.894000000    -5.337000000     0.504000000
H    -6.271000000    -5.520000000     1.958000000
O    -1.162000000    -4.534000000    -5.567000000
H    -1.458000000    -4.097000000    -6.366000000
H    -1.470000000    -3.970000000    -4.858000000
O    -2.965000000     0.585000000    -4.253000000
H    -2.249000000     0.377000000    -4.853000000
H    -3.725000000     0.711000000    -4.821000000
O    -5.090000000    -3.327000000    -4.331000000
H    -4.927000000    -4.156000000    -4.781000000
H    -4.244000000    -3.090000000    -3.953000000
O    -1.043000000    -4.808000000    -8.638000000
H    -1.920000000    -5.017000000    -8.316000000
H    -0.676000000    -5.652000000    -8.899000000
O    -3.776000000    -5.620000000    -5.265000000
H    -3.625000000    -5.849000000    -6.182000000
H    -2.907000000    -5.646000000    -4.866000000
O    -4.308000000    -0.583000000    -2.077000000
H    -3.985000000     0.242000000    -1.714000000
H    -3.668000000    -0.814000000    -2.751000000
O    -4.630000000    -1.928000000    -8.711000000
H    -4.032000000    -1.979000000    -7.965000000
H    -5.364000000    -2.494000000    -8.468000000
O    -1.001000000    -2.216000000    -7.617000000
H    -0.776000000    -3.098000000    -7.913000000
H    -0.496000000    -1.636000000    -8.187000000
O    -5.840000000    -7.048000000    -2.407000000
H    -4.948000000    -6.736000000    -2.259000000
H    -5.827000000    -7.399000000    -3.298000000
O    -1.973000000    -8.121000000    -3.194000000
H    -1.757000000    -7.255000000    -2.849000000
H    -2.672000000    -8.440000000    -2.623000000
O     0.177000000    -6.847000000    -5.702000000
H    -0.004000000    -6.768000000    -4.765000000
H    -0.139000000    -6.025000000    -6.077000000
O    -3.133000000    -1.586000000    -6.074000000
H    -3.088000000    -1.855000000    -5.156000000
H    -2.243000000    -1.712000000    -6.404000000
