218
-1469.50560
C    -4.561000000     3.110000000     0.165000000
H    -4.043000000     3.756000000    -0.540000000
C    -4.249000000     2.741000000     1.492000000
C    -5.078000000     1.803000000     2.250000000
H    -4.872000000     1.420000000     3.246000000
C    -2.876000000     2.985000000     2.044000000
O    -2.424000000     4.341000000     1.787000000
H    -2.161000000     2.251000000     1.643000000
O    -2.856000000     2.785000000     3.474000000
C    -1.687000000     2.177000000     4.009000000
C    -1.715000000     0.784000000     4.014000000
H    -2.565000000     0.305000000     3.536000000
C    -0.589000000    -0.026000000     4.215000000
O    -0.784000000    -1.351000000     4.157000000
C     0.613000000     0.578000000     4.667000000
C     1.845000000    -0.239000000     5.231000000
H     2.481000000     0.338000000     5.905000000
C     2.681000000    -0.667000000     3.976000000
C     3.661000000     0.151000000     3.341000000
H     3.919000000     1.149000000     3.686000000
H     1.440000000    -1.113000000     5.745000000
C     0.710000000     2.047000000     4.636000000
H     1.626000000     2.582000000     4.875000000
C    -0.414000000     2.809000000     4.297000000
C    -0.354000000     4.298000000     3.912000000
H     0.499000000     4.655000000     4.492000000
H    -1.252000000     4.827000000     4.236000000
C    -0.099000000     4.547000000     2.394000000
C     1.192000000     4.670000000     1.873000000
H     2.099000000     4.763000000     2.465000000
C    -1.136000000     4.503000000     1.403000000
C    -0.914000000     4.605000000     0.054000000
H    -1.743000000     4.665000000    -0.647000000
C     0.378000000     4.654000000    -0.429000000
O     0.575000000     4.560000000    -1.789000000
C     1.204000000     3.278000000    -2.336000000
C     0.504000000     2.699000000    -3.547000000
C     1.167000000     2.262000000    -4.680000000
H     2.223000000     2.434000000    -4.867000000
C    -0.871000000     2.574000000    -3.475000000
H    -1.292000000     2.881000000    -2.521000000
O     2.637000000     3.368000000    -2.511000000
H     0.976000000     2.533000000    -1.560000000
C     1.482000000     4.673000000     0.481000000
C     2.902000000     4.723000000    -0.010000000
H     3.403000000     5.371000000     0.713000000
H     2.994000000     5.344000000    -0.904000000
C     3.491000000     3.372000000    -0.207000000
C     4.288000000     2.745000000     0.817000000
H     4.538000000     3.251000000     1.746000000
C     3.318000000     2.784000000    -1.472000000
C     3.934000000     1.593000000    -1.724000000
H     3.813000000     1.055000000    -2.661000000
C     4.605000000     0.893000000    -0.692000000
O     4.989000000    -0.380000000    -1.074000000
C     4.166000000    -1.478000000    -0.560000000
C     3.911000000    -2.592000000    -1.566000000
C     3.646000000    -2.294000000    -2.871000000
H     3.831000000    -1.264000000    -3.164000000
C     3.759000000    -3.864000000    -1.088000000
H     4.013000000    -4.165000000    -0.075000000
O     4.787000000    -2.000000000     0.676000000
H     3.178000000    -1.100000000    -0.257000000
C     4.854000000     1.465000000     0.577000000
C     5.450000000     0.607000000     1.677000000
H     5.951000000     1.196000000     2.447000000
H     6.315000000     0.090000000     1.255000000
C     4.383000000    -0.275000000     2.249000000
C     4.155000000    -1.569000000     1.801000000
C     3.188000000    -2.372000000     2.330000000
H     3.107000000    -3.385000000     1.945000000
C     2.385000000    -1.930000000     3.372000000
O     1.197000000    -2.627000000     3.662000000
C    -0.036000000    -2.066000000     3.185000000
H     0.236000000    -1.370000000     2.378000000
C    -0.978000000    -3.202000000     2.732000000
C    -2.367000000    -2.932000000     2.551000000
H    -2.754000000    -1.947000000     2.802000000
C    -0.446000000    -4.436000000     2.306000000
H     0.622000000    -4.635000000     2.275000000
C    -1.323000000    -5.400000000     1.688000000
O    -0.835000000    -6.505000000     1.042000000
C    -2.688000000    -5.086000000     1.456000000
H    -3.275000000    -5.718000000     0.794000000
C    -3.178000000    -3.820000000     1.926000000
O    -4.478000000    -3.464000000     1.529000000
C    -5.275000000    -2.685000000     2.269000000
C    -5.793000000    -1.386000000     1.893000000
H    -5.750000000    -1.032000000     0.866000000
C    -5.587000000    -3.170000000     3.566000000
H    -5.175000000    -4.130000000     3.866000000
C    -6.256000000    -2.382000000     4.477000000
H    -6.379000000    -2.778000000     5.482000000
C    -6.800000000    -1.131000000     4.061000000
H    -7.439000000    -0.486000000     4.659000000
C    -6.567000000    -0.633000000     2.800000000
O    -7.110000000     0.580000000     2.281000000
C    -6.301000000     1.504000000     1.689000000
C    -6.662000000     1.952000000     0.399000000
H    -7.582000000     1.671000000    -0.106000000
C    -5.795000000     2.707000000    -0.327000000
O    -6.268000000     3.100000000    -1.520000000
C    -5.587000000     3.285000000    -2.683000000
C    -4.671000000     2.328000000    -3.070000000
H    -4.703000000     1.309000000    -2.692000000
C    -5.693000000     4.467000000    -3.368000000
H    -6.442000000     5.221000000    -3.141000000
C    -4.850000000     4.696000000    -4.450000000
H    -4.805000000     5.655000000    -4.959000000
C    -3.811000000     3.825000000    -4.610000000
H    -3.105000000     4.095000000    -5.392000000
C    -3.748000000     2.582000000    -4.079000000
O    -2.875000000     1.614000000    -4.525000000
C    -1.500000000     1.807000000    -4.482000000
C    -0.814000000     1.311000000    -5.616000000
H    -1.319000000     0.673000000    -6.336000000
C     0.520000000     1.573000000    -5.706000000
O     1.258000000     1.142000000    -6.789000000
C     2.282000000     0.309000000    -6.517000000
C     2.001000000    -0.825000000    -5.816000000
H     0.990000000    -1.043000000    -5.482000000
C     3.577000000     0.603000000    -6.985000000
H     3.911000000     1.541000000    -7.422000000
C     4.638000000    -0.286000000    -6.694000000
H     5.663000000     0.010000000    -6.904000000
C     4.315000000    -1.482000000    -6.045000000
H     5.129000000    -2.133000000    -5.735000000
C     2.982000000    -1.795000000    -5.648000000
O     2.847000000    -3.023000000    -5.031000000
C     3.170000000    -3.308000000    -3.707000000
C     3.120000000    -4.623000000    -3.352000000
H     2.836000000    -5.413000000    -4.042000000
C     3.358000000    -4.892000000    -1.967000000
O     3.209000000    -6.152000000    -1.552000000
C     2.535000000    -6.492000000    -0.341000000
C     3.269000000    -7.032000000     0.731000000
H     4.336000000    -7.222000000     0.655000000
C     2.651000000    -7.398000000     1.881000000
H     3.226000000    -7.836000000     2.694000000
C     1.265000000    -7.247000000     1.966000000
H     0.820000000    -7.598000000     2.893000000
C     0.521000000    -6.700000000     0.905000000
C     1.153000000    -6.254000000    -0.224000000
H     0.660000000    -5.820000000    -1.090000000
C    -0.404000000    -0.541000000    -2.258000000
H    -0.037000000    -0.789000000    -3.250000000
C     0.484000000    -0.010000000    -1.346000000
H     1.499000000     0.231000000    -1.653000000
C    -0.080000000     0.213000000    -0.052000000
C     0.771000000     0.918000000     0.960000000
H     0.802000000     2.007000000     0.893000000
H     0.427000000     0.801000000     1.990000000
H     1.832000000     0.671000000     0.879000000
C    -1.357000000    -0.258000000     0.256000000
H    -1.717000000    -0.252000000     1.281000000
C    -2.192000000    -0.734000000    -0.704000000
H    -3.220000000    -1.016000000    -0.490000000
C    -1.734000000    -0.826000000    -1.997000000
C    -2.542000000    -1.317000000    -3.195000000
O    -3.715000000    -1.448000000    -2.953000000
O    -2.020000000    -1.835000000    -4.203000000
O    -7.589000000    -3.135000000     0.076000000
H    -7.153000000    -2.309000000    -0.135000000
H    -6.892000000    -3.789000000     0.042000000
O    -4.297000000    -4.013000000    -2.448000000
H    -3.871000000    -4.216000000    -3.281000000
H    -4.118000000    -3.084000000    -2.307000000
O    -6.133000000    -1.661000000    -1.705000000
H    -5.211000000    -1.440000000    -1.836000000
H    -6.281000000    -2.418000000    -2.272000000
O    -7.271000000    -3.869000000    -3.349000000
H    -6.712000000    -3.287000000    -3.864000000
H    -8.138000000    -3.779000000    -3.743000000
O    -0.924000000    -4.157000000    -2.990000000
H    -0.956000000    -3.943000000    -2.057000000
H    -1.009000000    -3.312000000    -3.433000000
O    -5.830000000    -1.588000000    -4.713000000
H    -5.079000000    -1.687000000    -4.128000000
H    -6.239000000    -0.767000000    -4.441000000
O    -3.449000000    -3.873000000    -5.119000000
H    -2.819000000    -4.154000000    -5.782000000
H    -3.103000000    -3.040000000    -4.798000000
O    -4.689000000    -6.933000000    -3.090000000
H    -4.642000000    -7.573000000    -3.800000000
H    -5.078000000    -6.156000000    -3.492000000
O    -4.188000000    -0.703000000    -6.765000000
H    -4.520000000    -1.203000000    -6.020000000
H    -3.262000000    -0.939000000    -6.818000000
O    -6.289000000     1.173000000    -6.841000000
H    -5.981000000     1.966000000    -7.279000000
H    -5.507000000     0.629000000    -6.751000000
O    -7.206000000     0.589000000    -4.163000000
H    -6.898000000     0.894000000    -5.017000000
H    -7.546000000     1.376000000    -3.737000000
O    -5.663000000    -5.103000000    -6.276000000
H    -4.922000000    -4.694000000    -5.827000000
H    -5.452000000    -6.037000000    -6.283000000
O     0.911000000    -3.393000000    -8.148000000
H     1.791000000    -3.693000000    -8.374000000
H     0.971000000    -3.150000000    -7.224000000
O    -2.786000000     1.331000000    -8.596000000
H    -2.870000000     0.823000000    -7.789000000
H    -2.207000000     2.056000000    -8.364000000
O    -1.968000000    -7.599000000    -2.081000000
H    -1.645000000    -6.758000000    -2.407000000
H    -2.912000000    -7.568000000    -2.232000000
O    -7.237000000    -2.775000000    -6.825000000
H    -7.183000000    -2.116000000    -6.132000000
H    -6.864000000    -3.565000000    -6.434000000
O    -6.366000000    -5.387000000    -1.081000000
H    -5.534000000    -5.382000000    -1.554000000
H    -6.990000000    -4.991000000    -1.691000000
O    -0.604000000    -5.961000000    -5.244000000
H    -0.617000000    -5.374000000    -4.488000000
H    -0.774000000    -5.390000000    -5.994000000
O    -1.505000000    -1.852000000    -7.040000000
H    -1.880000000    -2.001000000    -6.172000000
H    -1.526000000    -2.711000000    -7.461000000
