218
-1447.52730
C    -4.604000000     3.134000000     1.163000000
H    -4.024000000     4.020000000     0.915000000
C    -3.978000000     2.161000000     1.931000000
C    -4.629000000     1.011000000     2.360000000
H    -4.135000000     0.196000000     2.883000000
C    -2.560000000     2.372000000     2.416000000
O    -2.123000000     3.750000000     2.307000000
H    -1.896000000     1.735000000     1.813000000
O    -2.474000000     1.962000000     3.745000000
C    -1.301000000     1.430000000     4.301000000
C    -1.258000000     0.078000000     4.473000000
H    -2.161000000    -0.506000000     4.312000000
C    -0.028000000    -0.613000000     4.667000000
O    -0.110000000    -1.972000000     4.543000000
C     1.164000000     0.015000000     4.830000000
C     2.427000000    -0.805000000     5.086000000
H     3.071000000    -0.095000000     5.608000000
C     3.146000000    -1.207000000     3.777000000
C     4.085000000    -0.458000000     3.117000000
H     4.496000000     0.404000000     3.636000000
H     2.215000000    -1.660000000     5.731000000
C     1.103000000     1.417000000     4.696000000
H     1.968000000     2.054000000     4.863000000
C    -0.058000000     2.127000000     4.331000000
C     0.020000000     3.636000000     4.212000000
H     0.830000000     4.023000000     4.835000000
H    -0.869000000     4.080000000     4.663000000
C     0.235000000     3.906000000     2.719000000
C     1.561000000     4.182000000     2.245000000
H     2.406000000     4.239000000     2.926000000
C    -0.843000000     4.002000000     1.901000000
C    -0.627000000     4.321000000     0.575000000
H    -1.482000000     4.396000000    -0.091000000
C     0.628000000     4.588000000     0.065000000
O     0.695000000     4.709000000    -1.330000000
C     1.121000000     3.582000000    -2.135000000
C     0.187000000     3.337000000    -3.307000000
C     0.693000000     2.692000000    -4.452000000
H     1.769000000     2.579000000    -4.553000000
C    -1.198000000     3.366000000    -3.121000000
H    -1.571000000     3.777000000    -2.186000000
O     2.512000000     3.604000000    -2.442000000
H     0.885000000     2.675000000    -1.559000000
C     1.759000000     4.521000000     0.917000000
C     3.156000000     4.656000000     0.337000000
H     3.802000000     5.050000000     1.124000000
H     3.055000000     5.458000000    -0.397000000
C     3.618000000     3.353000000    -0.187000000
C     4.259000000     2.426000000     0.656000000
H     4.446000000     2.667000000     1.700000000
C     3.464000000     2.987000000    -1.581000000
C     3.923000000     1.749000000    -1.993000000
H     3.645000000     1.467000000    -3.005000000
C     4.550000000     0.833000000    -1.166000000
O     4.781000000    -0.485000000    -1.632000000
C     3.756000000    -1.415000000    -1.274000000
C     3.419000000    -2.282000000    -2.420000000
C     3.260000000    -1.778000000    -3.677000000
H     3.469000000    -0.731000000    -3.886000000
C     2.907000000    -3.565000000    -2.156000000
H     2.759000000    -3.860000000    -1.120000000
O     4.260000000    -2.230000000    -0.119000000
H     2.797000000    -0.910000000    -1.084000000
C     4.785000000     1.230000000     0.165000000
C     5.465000000     0.228000000     1.119000000
H     6.031000000     0.682000000     1.934000000
H     6.171000000    -0.347000000     0.517000000
C     4.463000000    -0.671000000     1.788000000
C     3.887000000    -1.782000000     1.116000000
C     2.940000000    -2.504000000     1.785000000
H     2.563000000    -3.289000000     1.134000000
C     2.551000000    -2.236000000     3.073000000
O     1.591000000    -3.029000000     3.616000000
C     0.264000000    -2.583000000     3.335000000
H     0.321000000    -1.743000000     2.628000000
C    -0.556000000    -3.664000000     2.701000000
C    -1.964000000    -3.592000000     2.806000000
H    -2.418000000    -2.699000000     3.229000000
C    -0.036000000    -4.710000000     2.000000000
H     1.024000000    -4.854000000     1.810000000
C    -0.878000000    -5.745000000     1.606000000
O    -0.300000000    -6.913000000     1.061000000
C    -2.207000000    -5.774000000     1.845000000
H    -2.822000000    -6.641000000     1.617000000
C    -2.833000000    -4.647000000     2.390000000
O    -4.226000000    -4.615000000     2.686000000
C    -4.852000000    -3.550000000     3.318000000
C    -5.424000000    -2.545000000     2.521000000
H    -5.390000000    -2.691000000     1.444000000
C    -4.857000000    -3.439000000     4.732000000
H    -4.246000000    -4.054000000     5.387000000
C    -5.636000000    -2.443000000     5.305000000
H    -5.508000000    -2.281000000     6.372000000
C    -6.225000000    -1.411000000     4.551000000
H    -6.648000000    -0.532000000     5.030000000
C    -6.004000000    -1.427000000     3.137000000
O    -6.623000000    -0.408000000     2.342000000
C    -5.919000000     0.721000000     1.943000000
C    -6.606000000     1.718000000     1.149000000
H    -7.642000000     1.574000000     0.852000000
C    -5.923000000     2.870000000     0.693000000
O    -6.559000000     3.678000000    -0.231000000
C    -5.936000000     4.204000000    -1.432000000
C    -5.033000000     3.416000000    -2.085000000
H    -5.000000000     2.375000000    -1.772000000
C    -5.918000000     5.561000000    -1.841000000
H    -6.517000000     6.270000000    -1.274000000
C    -5.077000000     5.971000000    -2.950000000
H    -5.147000000     7.025000000    -3.206000000
C    -4.216000000     5.076000000    -3.633000000
H    -3.618000000     5.426000000    -4.470000000
C    -4.232000000     3.763000000    -3.191000000
O    -3.466000000     2.806000000    -3.804000000
C    -2.111000000     2.930000000    -4.076000000
C    -1.542000000     2.399000000    -5.279000000
H    -2.342000000     2.084000000    -5.945000000
C    -0.174000000     2.307000000    -5.486000000
O     0.383000000     1.726000000    -6.646000000
C     1.576000000     1.099000000    -6.773000000
C     1.662000000    -0.181000000    -6.236000000
H     0.919000000    -0.604000000    -5.565000000
C     2.679000000     1.736000000    -7.404000000
H     2.476000000     2.741000000    -7.766000000
C     3.775000000     0.989000000    -7.695000000
H     4.565000000     1.507000000    -8.232000000
C     3.784000000    -0.352000000    -7.377000000
H     4.555000000    -1.033000000    -7.727000000
C     2.832000000    -0.922000000    -6.534000000
O     2.937000000    -2.246000000    -6.038000000
C     2.800000000    -2.608000000    -4.772000000
C     2.437000000    -3.965000000    -4.456000000
H     2.044000000    -4.622000000    -5.229000000
C     2.398000000    -4.369000000    -3.150000000
O     1.748000000    -5.488000000    -2.835000000
C     1.862000000    -6.191000000    -1.661000000
C     3.013000000    -6.944000000    -1.396000000
H     3.705000000    -7.103000000    -2.219000000
C     3.048000000    -7.637000000    -0.217000000
H     3.779000000    -8.435000000    -0.117000000
C     1.909000000    -7.632000000     0.616000000
H     1.922000000    -8.278000000     1.490000000
C     0.817000000    -6.931000000     0.323000000
C     0.760000000    -6.227000000    -0.826000000
H    -0.122000000    -5.651000000    -1.093000000
C    -0.573000000    -1.338000000    -2.242000000
H    -0.291000000    -1.268000000    -3.289000000
C     0.237000000    -0.614000000    -1.417000000
H     1.015000000    -0.023000000    -1.894000000
C    -0.060000000    -0.520000000    -0.103000000
C     0.801000000     0.330000000     0.856000000
H     1.840000000     0.179000000     0.557000000
H     0.464000000     1.352000000     0.669000000
H     0.549000000     0.108000000     1.895000000
C    -1.200000000    -1.137000000     0.436000000
H    -1.352000000    -0.996000000     1.503000000
C    -1.969000000    -1.926000000    -0.372000000
H    -2.874000000    -2.428000000    -0.040000000
C    -1.759000000    -1.931000000    -1.771000000
C    -2.788000000    -2.607000000    -2.637000000
O    -3.859000000    -2.846000000    -2.161000000
O    -2.647000000    -2.529000000    -3.846000000
O    -4.145000000    -5.449000000    -1.825000000
H    -4.802000000    -5.445000000    -1.129000000
H    -3.859000000    -4.538000000    -1.891000000
O    -7.642000000    -4.071000000     0.023000000
H    -7.632000000    -3.164000000    -0.283000000
H    -7.354000000    -4.582000000    -0.733000000
O    -6.284000000    -0.628000000    -4.665000000
H    -5.341000000    -0.704000000    -4.809000000
H    -6.676000000    -1.145000000    -5.369000000
O    -7.936000000    -1.310000000    -0.360000000
H    -6.999000000    -1.196000000    -0.521000000
H    -8.110000000    -0.786000000     0.422000000
O    -3.680000000    -2.107000000    -8.742000000
H    -4.084000000    -2.586000000    -8.019000000
H    -4.409000000    -1.656000000    -9.167000000
O    -5.525000000    -6.549000000    -3.695000000
H    -4.821000000    -6.426000000    -3.059000000
H    -5.163000000    -6.225000000    -4.520000000
O    -6.105000000    -3.596000000    -3.682000000
H    -5.279000000    -3.369000000    -3.255000000
H    -6.141000000    -4.551000000    -3.641000000
O    -1.506000000    -2.429000000    -6.268000000
H    -1.115000000    -3.255000000    -6.553000000
H    -1.824000000    -2.607000000    -5.383000000
O    -3.245000000     0.776000000    -1.167000000
H    -2.641000000     0.061000000    -0.965000000
H    -2.750000000     1.350000000    -1.752000000
O    -4.703000000    -2.896000000    -6.138000000
H    -3.921000000    -2.786000000    -5.598000000
H    -5.398000000    -3.102000000    -5.513000000
O    -7.698000000    -5.656000000    -2.105000000
H    -8.379000000    -6.266000000    -1.820000000
H    -7.009000000    -6.217000000    -2.462000000
O    -2.045000000    -5.430000000    -4.279000000
H    -2.460000000    -5.783000000    -5.066000000
H    -2.292000000    -4.506000000    -4.271000000
O    -5.341000000    -0.903000000    -0.846000000
H    -4.798000000    -0.149000000    -1.075000000
H    -4.830000000    -1.661000000    -1.128000000
O    -7.034000000     1.765000000    -4.231000000
H    -6.682000000     0.875000000    -4.204000000
H    -7.553000000     1.793000000    -5.035000000
O    -8.615000000    -1.168000000    -3.128000000
H    -7.858000000    -1.181000000    -3.713000000
H    -8.243000000    -1.276000000    -2.253000000
O    -4.248000000    -6.282000000    -6.308000000
H    -3.795000000    -6.048000000    -7.118000000
H    -5.141000000    -6.489000000    -6.585000000
O    -1.961000000    -7.200000000    -1.782000000
H    -1.780000000    -6.830000000    -2.646000000
H    -2.659000000    -6.650000000    -1.427000000
O    -0.437000000    -4.831000000    -6.369000000
H     0.058000000    -5.465000000    -6.889000000
H    -0.346000000    -5.138000000    -5.467000000
O    -3.092000000    -0.222000000    -4.922000000
H    -2.955000000    -0.930000000    -4.293000000
H    -2.711000000    -0.547000000    -5.737000000
