218
-1483.41593
C    -3.957000000     3.556000000     1.265000000
H    -3.350000000     4.438000000     1.080000000
C    -3.478000000     2.619000000     2.196000000
C    -4.224000000     1.497000000     2.581000000
H    -3.749000000     0.822000000     3.288000000
C    -2.132000000     2.818000000     2.745000000
O    -1.596000000     4.229000000     2.556000000
H    -1.482000000     2.166000000     2.142000000
O    -1.897000000     2.421000000     4.096000000
C    -0.704000000     1.750000000     4.380000000
C    -0.869000000     0.364000000     4.586000000
H    -1.912000000     0.062000000     4.549000000
C     0.219000000    -0.458000000     4.726000000
O     0.036000000    -1.859000000     4.701000000
C     1.501000000     0.135000000     4.658000000
C     2.795000000    -0.656000000     4.851000000
H     3.514000000     0.038000000     5.291000000
C     3.343000000    -1.229000000     3.552000000
C     4.273000000    -0.505000000     2.786000000
H     4.728000000     0.378000000     3.228000000
H     2.656000000    -1.440000000     5.599000000
C     1.706000000     1.493000000     4.500000000
H     2.694000000     1.932000000     4.607000000
C     0.566000000     2.347000000     4.271000000
C     0.732000000     3.836000000     4.074000000
H     1.655000000     4.024000000     4.627000000
H    -0.090000000     4.301000000     4.622000000
C     0.821000000     4.159000000     2.618000000
C     2.045000000     4.217000000     1.925000000
H     2.975000000     4.026000000     2.454000000
C    -0.392000000     4.336000000     1.948000000
C    -0.311000000     4.624000000     0.586000000
H    -1.264000000     4.868000000     0.123000000
C     0.887000000     4.541000000    -0.162000000
O     0.964000000     4.616000000    -1.549000000
C     1.064000000     3.343000000    -2.210000000
C    -0.030000000     3.136000000    -3.310000000
C     0.186000000     2.047000000    -4.148000000
H     1.048000000     1.414000000    -3.953000000
C    -1.236000000     3.808000000    -3.363000000
H    -1.576000000     4.492000000    -2.589000000
O     2.412000000     3.118000000    -2.753000000
H     0.853000000     2.489000000    -1.550000000
C     2.081000000     4.404000000     0.553000000
C     3.425000000     4.244000000    -0.209000000
H     4.248000000     4.487000000     0.465000000
H     3.626000000     4.973000000    -0.997000000
C     3.677000000     2.862000000    -0.700000000
C     4.560000000     2.090000000     0.032000000
H     4.917000000     2.419000000     1.005000000
C     3.273000000     2.416000000    -1.967000000
C     3.589000000     1.116000000    -2.430000000
H     3.098000000     0.787000000    -3.343000000
C     4.402000000     0.346000000    -1.557000000
O     4.648000000    -0.963000000    -1.786000000
C     3.702000000    -1.932000000    -1.359000000
C     3.092000000    -2.777000000    -2.480000000
C     3.284000000    -2.412000000    -3.856000000
H     3.707000000    -1.438000000    -4.088000000
C     2.216000000    -3.777000000    -2.098000000
H     2.170000000    -4.092000000    -1.058000000
O     4.376000000    -2.578000000    -0.238000000
H     2.809000000    -1.462000000    -0.920000000
C     4.869000000     0.798000000    -0.333000000
C     5.640000000    -0.065000000     0.663000000
H     6.236000000     0.637000000     1.249000000
H     6.370000000    -0.711000000     0.171000000
C     4.607000000    -0.875000000     1.482000000
C     4.124000000    -2.134000000     1.085000000
C     3.275000000    -2.917000000     1.890000000
H     2.982000000    -3.858000000     1.430000000
C     2.839000000    -2.460000000     3.129000000
O     1.846000000    -3.140000000     3.761000000
C     0.529000000    -2.577000000     3.542000000
H     0.708000000    -1.860000000     2.727000000
C    -0.501000000    -3.601000000     3.021000000
C    -1.878000000    -3.294000000     3.095000000
H    -2.191000000    -2.385000000     3.603000000
C    -0.151000000    -4.870000000     2.555000000
H     0.867000000    -5.245000000     2.487000000
C    -1.086000000    -5.743000000     2.111000000
O    -0.682000000    -6.990000000     1.706000000
C    -2.433000000    -5.455000000     2.209000000
H    -3.220000000    -6.128000000     1.879000000
C    -2.826000000    -4.187000000     2.651000000
O    -4.193000000    -3.908000000     2.574000000
C    -4.826000000    -2.876000000     3.208000000
C    -5.268000000    -1.727000000     2.533000000
H    -5.167000000    -1.642000000     1.454000000
C    -4.976000000    -2.995000000     4.593000000
H    -4.449000000    -3.804000000     5.091000000
C    -5.624000000    -1.985000000     5.286000000
H    -5.723000000    -2.180000000     6.351000000
C    -6.034000000    -0.856000000     4.626000000
H    -6.472000000     0.011000000     5.113000000
C    -5.942000000    -0.735000000     3.255000000
O    -6.433000000     0.318000000     2.553000000
C    -5.546000000     1.316000000     2.132000000
C    -5.988000000     2.253000000     1.172000000
H    -6.968000000     2.181000000     0.708000000
C    -5.243000000     3.368000000     0.807000000
O    -5.788000000     4.336000000    -0.050000000
C    -5.193000000     4.862000000    -1.207000000
C    -4.420000000     4.155000000    -2.115000000
H    -4.243000000     3.084000000    -2.061000000
C    -5.344000000     6.203000000    -1.384000000
H    -5.840000000     6.808000000    -0.629000000
C    -4.898000000     6.847000000    -2.511000000
H    -4.831000000     7.932000000    -2.485000000
C    -4.150000000     6.131000000    -3.467000000
H    -3.679000000     6.579000000    -4.338000000
C    -3.906000000     4.802000000    -3.242000000
O    -3.427000000     3.989000000    -4.275000000
C    -2.126000000     3.525000000    -4.368000000
C    -1.903000000     2.444000000    -5.208000000
H    -2.754000000     2.108000000    -5.795000000
C    -0.710000000     1.749000000    -5.201000000
O    -0.687000000     0.569000000    -5.910000000
C     0.443000000     0.076000000    -6.486000000
C     1.083000000    -1.046000000    -5.927000000
H     0.769000000    -1.330000000    -4.926000000
C     0.976000000     0.608000000    -7.699000000
H     0.506000000     1.477000000    -8.151000000
C     2.021000000    -0.021000000    -8.373000000
H     2.418000000     0.327000000    -9.323000000
C     2.525000000    -1.222000000    -7.830000000
H     3.173000000    -1.869000000    -8.415000000
C     2.076000000    -1.719000000    -6.628000000
O     2.629000000    -2.868000000    -6.114000000
C     2.646000000    -3.213000000    -4.791000000
C     1.936000000    -4.388000000    -4.397000000
H     1.478000000    -5.069000000    -5.109000000
C     1.729000000    -4.667000000    -3.065000000
O     1.023000000    -5.800000000    -2.701000000
C     1.193000000    -6.489000000    -1.473000000
C     2.369000000    -7.241000000    -1.234000000
H     3.104000000    -7.265000000    -2.034000000
C     2.398000000    -7.814000000     0.008000000
H     3.203000000    -8.509000000     0.234000000
C     1.456000000    -7.700000000     0.983000000
H     1.631000000    -8.134000000     1.964000000
C     0.280000000    -7.000000000     0.711000000
C     0.153000000    -6.354000000    -0.513000000
H    -0.650000000    -5.643000000    -0.688000000
C    -0.522000000    -1.555000000    -1.890000000
H    -0.279000000    -1.823000000    -2.915000000
C     0.381000000    -0.727000000    -1.201000000
H     1.253000000    -0.275000000    -1.666000000
C     0.213000000    -0.374000000     0.057000000
C     1.106000000     0.612000000     0.714000000
H     2.075000000     0.122000000     0.828000000
H     1.299000000     1.437000000     0.025000000
H     0.643000000     1.040000000     1.605000000
C    -0.922000000    -0.838000000     0.723000000
H    -1.092000000    -0.627000000     1.776000000
C    -1.879000000    -1.570000000     0.040000000
H    -2.745000000    -1.919000000     0.598000000
C    -1.652000000    -2.044000000    -1.263000000
C    -2.676000000    -2.900000000    -1.917000000
O    -3.574000000    -3.372000000    -1.329000000
O    -2.483000000    -3.260000000    -3.091000000
O    -3.610000000    -6.194000000    -1.181000000
H    -3.554000000    -5.241000000    -1.253000000
H    -3.683000000    -6.498000000    -2.086000000
O    -5.994000000    -6.407000000    -0.023000000
H    -5.877000000    -6.536000000     0.918000000
H    -5.103000000    -6.373000000    -0.372000000
O    -3.976000000    -0.226000000    -6.806000000
H    -4.753000000    -0.730000000    -6.564000000
H    -3.637000000    -0.667000000    -7.585000000
O    -5.854000000    -3.479000000     0.090000000
H    -5.056000000    -3.055000000    -0.226000000
H    -5.605000000    -4.395000000     0.216000000
O    -3.923000000    -4.238000000    -5.724000000
H    -3.280000000    -3.528000000    -5.731000000
H    -3.766000000    -4.711000000    -6.541000000
O    -4.716000000    -1.883000000    -3.757000000
H    -5.558000000    -2.337000000    -3.759000000
H    -4.073000000    -2.572000000    -3.592000000
O    -2.199000000     1.587000000    -0.512000000
H    -2.738000000     1.464000000    -1.294000000
H    -1.763000000     0.744000000    -0.387000000
O    -1.285000000    -5.385000000    -4.145000000
H    -1.629000000    -4.625000000    -3.675000000
H    -0.439000000    -5.558000000    -3.731000000
O    -8.319000000    -2.330000000    -0.440000000
H    -8.705000000    -1.811000000     0.266000000
H    -7.534000000    -2.715000000    -0.051000000
O    -6.962000000    -0.218000000    -4.511000000
H    -6.866000000     0.366000000    -5.263000000
H    -6.076000000    -0.539000000    -4.342000000
O    -4.679000000     0.466000000    -2.156000000
H    -5.145000000     0.048000000    -1.432000000
H    -4.585000000    -0.226000000    -2.811000000
O    -5.541000000    -4.529000000    -2.751000000
H    -4.924000000    -4.017000000    -2.229000000
H    -6.146000000    -4.900000000    -2.109000000
O    -2.103000000    -6.004000000    -6.723000000
H    -1.575000000    -5.512000000    -7.351000000
H    -1.800000000    -5.703000000    -5.867000000
O    -0.886000000    -8.803000000    -2.020000000
H    -1.578000000    -9.006000000    -1.391000000
H    -1.335000000    -8.346000000    -2.731000000
O    -2.400000000    -7.912000000    -4.204000000
H    -2.243000000    -8.304000000    -5.063000000
H    -2.214000000    -6.981000000    -4.328000000
O    -1.234000000    -3.358000000    -7.929000000
H    -1.353000000    -2.752000000    -7.197000000
H    -0.299000000    -3.565000000    -7.918000000
O    -3.310000000    -8.950000000    -0.569000000
H    -3.474000000    -8.017000000    -0.704000000
H    -4.182000000    -9.334000000    -0.473000000
O    -6.486000000    -4.896000000    -5.339000000
H    -6.203000000    -4.695000000    -4.447000000
H    -5.700000000    -4.774000000    -5.872000000
O    -2.174000000    -2.094000000    -5.428000000
H    -2.277000000    -2.472000000    -4.554000000
H    -2.637000000    -1.257000000    -5.383000000
