218
-1487.90583
C    -3.623000000     4.352000000     1.121000000
H    -2.972000000     5.161000000     0.800000000
C    -3.149000000     3.423000000     2.054000000
C    -3.985000000     2.413000000     2.524000000
H    -3.519000000     1.660000000     3.154000000
C    -1.671000000     3.330000000     2.447000000
O    -0.940000000     4.535000000     2.186000000
H    -1.060000000     2.641000000     1.844000000
O    -1.473000000     2.985000000     3.786000000
C    -0.421000000     2.085000000     4.017000000
C    -0.742000000     0.749000000     4.170000000
H    -1.727000000     0.306000000     4.045000000
C     0.275000000    -0.244000000     4.413000000
O    -0.072000000    -1.604000000     4.424000000
C     1.616000000     0.150000000     4.498000000
C     2.771000000    -0.833000000     4.644000000
H     3.598000000    -0.241000000     5.042000000
C     3.128000000    -1.553000000     3.290000000
C     4.214000000    -1.083000000     2.498000000
H     4.819000000    -0.235000000     2.809000000
H     2.533000000    -1.529000000     5.452000000
C     1.893000000     1.535000000     4.405000000
H     2.937000000     1.838000000     4.402000000
C     0.920000000     2.478000000     4.077000000
C     1.352000000     3.923000000     3.789000000
H     2.323000000     4.189000000     4.211000000
H     0.601000000     4.548000000     4.277000000
C     1.416000000     4.215000000     2.301000000
C     2.651000000     3.975000000     1.650000000
H     3.488000000     3.595000000     2.229000000
C     0.308000000     4.534000000     1.540000000
C     0.460000000     4.682000000     0.163000000
H    -0.404000000     4.804000000    -0.485000000
C     1.647000000     4.498000000    -0.484000000
O     1.642000000     4.467000000    -1.853000000
C     1.471000000     3.104000000    -2.305000000
C     0.357000000     3.008000000    -3.395000000
C     0.378000000     1.924000000    -4.268000000
H     1.202000000     1.215000000    -4.236000000
C    -0.762000000     3.791000000    -3.471000000
H    -0.874000000     4.560000000    -2.711000000
O     2.714000000     2.617000000    -2.945000000
H     1.240000000     2.467000000    -1.439000000
C     2.798000000     4.098000000     0.250000000
C     4.079000000     3.737000000    -0.425000000
H     4.970000000     3.850000000     0.197000000
H     4.282000000     4.396000000    -1.272000000
C     4.052000000     2.250000000    -0.875000000
C     4.675000000     1.291000000    -0.027000000
H     5.108000000     1.662000000     0.899000000
C     3.572000000     1.877000000    -2.191000000
C     3.746000000     0.520000000    -2.600000000
H     3.241000000     0.269000000    -3.529000000
C     4.286000000    -0.425000000    -1.728000000
O     4.254000000    -1.666000000    -2.134000000
C     3.382000000    -2.530000000    -1.431000000
C     2.663000000    -3.447000000    -2.412000000
C     2.658000000    -3.199000000    -3.749000000
H     3.290000000    -2.423000000    -4.172000000
C     1.814000000    -4.457000000    -1.892000000
H     1.733000000    -4.628000000    -0.822000000
O     3.923000000    -3.317000000    -0.385000000
H     2.601000000    -1.909000000    -0.968000000
C     4.823000000    -0.042000000    -0.456000000
C     5.526000000    -1.047000000     0.443000000
H     6.280000000    -0.574000000     1.076000000
H     6.035000000    -1.804000000    -0.158000000
C     4.455000000    -1.659000000     1.265000000
C     3.755000000    -2.795000000     0.869000000
C     2.827000000    -3.360000000     1.706000000
H     2.152000000    -4.062000000     1.224000000
C     2.436000000    -2.682000000     2.885000000
O     1.352000000    -3.241000000     3.496000000
C     0.188000000    -2.485000000     3.304000000
H     0.259000000    -1.787000000     2.457000000
C    -1.059000000    -3.402000000     3.083000000
C    -2.347000000    -3.039000000     3.255000000
H    -2.589000000    -2.037000000     3.598000000
C    -0.850000000    -4.727000000     2.620000000
H     0.182000000    -5.069000000     2.652000000
C    -1.930000000    -5.541000000     2.317000000
O    -1.700000000    -6.881000000     2.062000000
C    -3.264000000    -5.153000000     2.402000000
H    -4.135000000    -5.769000000     2.195000000
C    -3.433000000    -3.867000000     2.866000000
O    -4.757000000    -3.342000000     2.850000000
C    -5.005000000    -2.067000000     3.307000000
C    -5.416000000    -1.056000000     2.430000000
H    -5.529000000    -1.079000000     1.349000000
C    -4.823000000    -1.821000000     4.626000000
H    -4.563000000    -2.636000000     5.297000000
C    -5.175000000    -0.635000000     5.287000000
H    -5.051000000    -0.510000000     6.360000000
C    -5.737000000     0.368000000     4.489000000
H    -6.193000000     1.227000000     4.974000000
C    -5.753000000     0.169000000     3.092000000
O    -6.124000000     1.249000000     2.234000000
C    -5.272000000     2.280000000     2.009000000
C    -5.835000000     3.312000000     1.224000000
H    -6.883000000     3.283000000     0.937000000
C    -4.983000000     4.323000000     0.751000000
O    -5.359000000     5.309000000    -0.159000000
C    -4.645000000     5.689000000    -1.311000000
C    -4.092000000     4.744000000    -2.272000000
H    -4.155000000     3.667000000    -2.136000000
C    -4.505000000     7.025000000    -1.546000000
H    -4.942000000     7.737000000    -0.851000000
C    -3.795000000     7.489000000    -2.664000000
H    -3.654000000     8.556000000    -2.816000000
C    -3.238000000     6.567000000    -3.555000000
H    -2.617000000     6.904000000    -4.381000000
C    -3.316000000     5.209000000    -3.330000000
O    -2.919000000     4.450000000    -4.335000000
C    -1.852000000     3.523000000    -4.270000000
C    -1.860000000     2.442000000    -5.076000000
H    -2.707000000     2.165000000    -5.698000000
C    -0.749000000     1.559000000    -5.050000000
O    -0.823000000     0.343000000    -5.705000000
C     0.273000000    -0.298000000    -6.182000000
C     0.376000000    -1.697000000    -5.893000000
H    -0.402000000    -2.206000000    -5.331000000
C     1.181000000     0.383000000    -6.952000000
H     0.953000000     1.410000000    -7.224000000
C     2.388000000    -0.245000000    -7.267000000
H     3.176000000     0.360000000    -7.708000000
C     2.547000000    -1.620000000    -6.923000000
H     3.408000000    -2.164000000    -7.305000000
C     1.539000000    -2.349000000    -6.269000000
O     1.703000000    -3.667000000    -5.879000000
C     1.908000000    -4.012000000    -4.547000000
C     1.051000000    -5.038000000    -4.064000000
H     0.517000000    -5.667000000    -4.771000000
C     1.094000000    -5.309000000    -2.743000000
O     0.310000000    -6.358000000    -2.220000000
C     0.406000000    -6.865000000    -0.898000000
C     1.520000000    -7.550000000    -0.433000000
H     2.376000000    -7.761000000    -1.069000000
C     1.516000000    -8.129000000     0.826000000
H     2.361000000    -8.639000000     1.282000000
C     0.364000000    -7.943000000     1.630000000
H     0.278000000    -8.328000000     2.642000000
C    -0.742000000    -7.263000000     1.154000000
C    -0.749000000    -6.690000000    -0.086000000
H    -1.607000000    -6.097000000    -0.394000000
C    -0.967000000    -1.367000000    -2.015000000
H    -0.872000000    -1.836000000    -2.992000000
C     0.112000000    -0.818000000    -1.320000000
H     1.026000000    -0.584000000    -1.858000000
C    -0.051000000    -0.364000000     0.001000000
C     1.008000000     0.403000000     0.663000000
H     1.474000000     1.114000000    -0.022000000
H     0.653000000     0.909000000     1.563000000
H     1.832000000    -0.230000000     0.998000000
C    -1.270000000    -0.507000000     0.641000000
H    -1.442000000    -0.197000000     1.668000000
C    -2.380000000    -1.039000000    -0.120000000
H    -3.278000000    -1.259000000     0.453000000
C    -2.221000000    -1.398000000    -1.459000000
C    -3.397000000    -2.021000000    -2.166000000
O    -4.527000000    -1.764000000    -1.827000000
O    -3.195000000    -2.867000000    -3.060000000
O    -6.286000000    -3.495000000    -0.096000000
H    -5.390000000    -3.830000000    -0.126000000
H    -6.276000000    -2.733000000    -0.674000000
O    -7.734000000     0.718000000    -3.366000000
H    -7.655000000     1.409000000    -2.708000000
H    -8.098000000     1.158000000    -4.134000000
O    -8.952000000    -1.174000000     0.069000000
H    -8.564000000    -1.380000000    -0.781000000
H    -8.675000000    -1.891000000     0.640000000
O    -5.162000000    -5.056000000    -2.590000000
H    -6.060000000    -5.145000000    -2.909000000
H    -5.029000000    -4.112000000    -2.508000000
O    -7.100000000    -1.520000000    -2.023000000
H    -6.147000000    -1.444000000    -1.974000000
H    -7.382000000    -0.714000000    -2.456000000
O    -8.873000000    -1.891000000    -4.379000000
H    -8.250000000    -2.433000000    -4.865000000
H    -8.371000000    -1.557000000    -3.636000000
O    -2.549000000     1.919000000    -0.772000000
H    -3.501000000     1.821000000    -0.798000000
H    -2.234000000     1.099000000    -0.392000000
O    -2.207000000    -5.329000000    -3.512000000
H    -1.843000000    -5.666000000    -2.694000000
H    -2.689000000    -4.543000000    -3.254000000
O    -5.046000000     0.920000000    -1.088000000
H    -5.025000000    -0.035000000    -1.153000000
H    -5.951000000     1.124000000    -0.852000000
O    -2.912000000    -1.076000000    -6.690000000
H    -3.774000000    -1.004000000    -6.280000000
H    -2.313000000    -0.670000000    -6.064000000
O    -7.885000000    -3.986000000    -3.038000000
H    -8.821000000    -4.127000000    -3.185000000
H    -7.848000000    -3.280000000    -2.392000000
O    -3.349000000    -4.408000000    -5.793000000
H    -3.152000000    -4.876000000    -4.981000000
H    -3.774000000    -3.600000000    -5.506000000
O    -4.095000000    -7.334000000    -1.094000000
H    -4.525000000    -6.591000000    -1.517000000
H    -4.493000000    -7.380000000    -0.225000000
O    -5.026000000    -2.373000000    -4.785000000
H    -5.244000000    -1.444000000    -4.721000000
H    -4.380000000    -2.516000000    -4.093000000
O    -1.810000000    -3.635000000    -7.861000000
H    -2.059000000    -3.858000000    -6.964000000
H    -2.110000000    -2.734000000    -7.976000000
O    -1.842000000    -7.738000000    -4.572000000
H    -0.930000000    -7.764000000    -4.863000000
H    -1.999000000    -6.817000000    -4.360000000
O    -7.059000000    -2.747000000    -6.271000000
H    -6.438000000    -2.798000000    -5.545000000
H    -7.333000000    -3.653000000    -6.416000000
O    -8.234000000    -2.826000000     1.912000000
H    -7.474000000    -3.280000000     1.549000000
H    -8.127000000    -2.900000000     2.861000000
O    -4.836000000     0.373000000    -4.189000000
H    -4.481000000     0.650000000    -3.345000000
H    -5.372000000     1.112000000    -4.478000000
