218
-1469.74927
C    -3.347000000     3.884000000     1.683000000
H    -2.666000000     4.549000000     1.157000000
C    -2.966000000     3.072000000     2.747000000
C    -3.882000000     2.264000000     3.439000000
H    -3.661000000     1.540000000     4.219000000
C    -1.498000000     2.873000000     3.096000000
O    -0.806000000     4.136000000     2.785000000
H    -1.025000000     2.035000000     2.563000000
O    -1.245000000     2.525000000     4.455000000
C    -0.135000000     1.660000000     4.662000000
C    -0.516000000     0.375000000     4.697000000
H    -1.545000000     0.148000000     4.964000000
C     0.423000000    -0.609000000     4.520000000
O    -0.005000000    -1.896000000     4.485000000
C     1.783000000    -0.335000000     4.575000000
C     2.850000000    -1.403000000     4.570000000
H     3.780000000    -1.140000000     5.078000000
C     3.119000000    -1.883000000     3.066000000
C     4.172000000    -1.371000000     2.316000000
H     4.718000000    -0.514000000     2.702000000
H     2.447000000    -2.278000000     5.084000000
C     2.212000000     0.983000000     4.523000000
H     3.274000000     1.192000000     4.425000000
C     1.217000000     1.965000000     4.466000000
C     1.559000000     3.368000000     4.204000000
H     2.600000000     3.491000000     4.509000000
H     0.887000000     3.981000000     4.808000000
C     1.494000000     3.699000000     2.696000000
C     2.691000000     3.577000000     1.943000000
H     3.629000000     3.275000000     2.401000000
C     0.330000000     4.054000000     2.063000000
C     0.299000000     4.287000000     0.661000000
H    -0.649000000     4.397000000     0.142000000
C     1.468000000     4.000000000    -0.025000000
O     1.507000000     4.225000000    -1.369000000
C     1.563000000     3.074000000    -2.241000000
C     0.501000000     3.211000000    -3.343000000
C     0.485000000     2.365000000    -4.435000000
H     1.285000000     1.664000000    -4.660000000
C    -0.656000000     3.948000000    -3.123000000
H    -0.696000000     4.508000000    -2.192000000
O     2.941000000     2.957000000    -2.786000000
H     1.329000000     2.202000000    -1.614000000
C     2.687000000     3.788000000     0.563000000
C     3.954000000     3.615000000    -0.212000000
H     4.816000000     3.935000000     0.378000000
H     4.161000000     4.455000000    -0.879000000
C     4.130000000     2.265000000    -0.793000000
C     4.793000000     1.269000000    -0.053000000
H     5.220000000     1.637000000     0.876000000
C     3.723000000     2.038000000    -2.098000000
C     3.804000000     0.768000000    -2.600000000
H     3.387000000     0.545000000    -3.579000000
C     4.346000000    -0.291000000    -1.853000000
O     4.283000000    -1.535000000    -2.332000000
C     3.180000000    -2.382000000    -1.821000000
C     2.395000000    -3.085000000    -2.932000000
C     2.346000000    -2.547000000    -4.214000000
H     2.967000000    -1.672000000    -4.385000000
C     1.790000000    -4.278000000    -2.593000000
H     1.809000000    -4.629000000    -1.564000000
O     3.752000000    -3.254000000    -0.825000000
H     2.373000000    -1.807000000    -1.344000000
C     4.877000000     0.012000000    -0.583000000
C     5.507000000    -1.099000000     0.277000000
H     6.299000000    -0.634000000     0.868000000
H     6.041000000    -1.674000000    -0.482000000
C     4.471000000    -1.857000000     1.058000000
C     3.742000000    -2.876000000     0.501000000
C     2.634000000    -3.354000000     1.236000000
H     2.060000000    -4.152000000     0.773000000
C     2.314000000    -2.837000000     2.515000000
O     1.235000000    -3.298000000     3.160000000
C     0.037000000    -2.508000000     3.165000000
H     0.105000000    -1.708000000     2.412000000
C    -1.155000000    -3.413000000     2.842000000
C    -2.420000000    -2.914000000     2.976000000
H    -2.622000000    -1.892000000     3.288000000
C    -0.920000000    -4.666000000     2.202000000
H     0.079000000    -5.094000000     2.205000000
C    -1.989000000    -5.424000000     1.843000000
O    -1.793000000    -6.619000000     1.202000000
C    -3.310000000    -4.946000000     1.972000000
H    -4.160000000    -5.496000000     1.578000000
C    -3.551000000    -3.687000000     2.491000000
O    -4.824000000    -3.086000000     2.379000000
C    -5.237000000    -2.090000000     3.242000000
C    -5.377000000    -0.796000000     2.891000000
H    -4.989000000    -0.427000000     1.945000000
C    -5.773000000    -2.615000000     4.468000000
H    -5.656000000    -3.657000000     4.753000000
C    -6.390000000    -1.753000000     5.391000000
H    -6.860000000    -2.107000000     6.305000000
C    -6.496000000    -0.413000000     5.116000000
H    -6.990000000     0.314000000     5.754000000
C    -6.021000000     0.075000000     3.860000000
O    -6.227000000     1.451000000     3.600000000
C    -5.264000000     2.230000000     3.000000000
C    -5.648000000     3.228000000     2.077000000
H    -6.697000000     3.389000000     1.844000000
C    -4.717000000     4.063000000     1.449000000
O    -5.110000000     5.040000000     0.515000000
C    -4.215000000     5.650000000    -0.379000000
C    -3.935000000     4.961000000    -1.577000000
H    -4.420000000     3.992000000    -1.661000000
C    -3.617000000     6.893000000    -0.230000000
H    -3.765000000     7.370000000     0.736000000
C    -2.646000000     7.426000000    -1.098000000
H    -2.160000000     8.392000000    -0.988000000
C    -2.394000000     6.743000000    -2.322000000
H    -1.812000000     7.086000000    -3.174000000
C    -3.031000000     5.510000000    -2.496000000
O    -2.781000000     4.825000000    -3.707000000
C    -1.740000000     3.998000000    -3.962000000
C    -1.720000000     3.160000000    -5.084000000
H    -2.567000000     3.101000000    -5.763000000
C    -0.619000000     2.346000000    -5.282000000
O    -0.693000000     1.460000000    -6.368000000
C     0.425000000     0.667000000    -6.804000000
C     0.413000000    -0.657000000    -6.384000000
H    -0.436000000    -1.149000000    -5.916000000
C     1.449000000     1.164000000    -7.658000000
H     1.198000000     2.195000000    -7.895000000
C     2.544000000     0.363000000    -7.912000000
H     3.422000000     0.606000000    -8.505000000
C     2.610000000    -0.939000000    -7.441000000
H     3.459000000    -1.578000000    -7.669000000
C     1.528000000    -1.436000000    -6.703000000
O     1.443000000    -2.727000000    -6.439000000
C     1.668000000    -3.285000000    -5.145000000
C     0.969000000    -4.383000000    -4.827000000
H     0.269000000    -4.873000000    -5.498000000
C     1.046000000    -4.939000000    -3.561000000
O     0.212000000    -6.000000000    -3.125000000
C     0.208000000    -6.596000000    -1.887000000
C     0.908000000    -7.760000000    -1.656000000
H     1.586000000    -8.112000000    -2.429000000
C     0.785000000    -8.474000000    -0.519000000
H     1.442000000    -9.333000000    -0.407000000
C    -0.106000000    -8.092000000     0.439000000
H    -0.437000000    -8.689000000     1.285000000
C    -0.839000000    -6.937000000     0.256000000
C    -0.691000000    -6.176000000    -0.888000000
H    -1.311000000    -5.302000000    -1.066000000
C    -1.185000000    -1.962000000    -1.574000000
H    -0.851000000    -2.577000000    -2.406000000
C    -0.276000000    -1.101000000    -0.916000000
H     0.701000000    -1.098000000    -1.392000000
C    -0.588000000    -0.303000000     0.117000000
C     0.427000000     0.564000000     0.767000000
H     0.664000000     0.334000000     1.808000000
H     1.379000000     0.403000000     0.257000000
H     0.118000000     1.611000000     0.751000000
C    -1.929000000    -0.334000000     0.596000000
H    -2.234000000     0.067000000     1.559000000
C    -2.872000000    -1.167000000    -0.024000000
H    -3.887000000    -1.252000000     0.356000000
C    -2.512000000    -2.036000000    -1.060000000
C    -3.517000000    -2.990000000    -1.696000000
O    -4.587000000    -3.181000000    -1.260000000
O    -3.196000000    -3.589000000    -2.708000000
O    -6.492000000    -1.056000000    -4.011000000
H    -6.432000000    -0.808000000    -4.934000000
H    -6.033000000    -0.357000000    -3.545000000
O    -5.450000000    -5.738000000    -1.507000000
H    -6.118000000    -5.266000000    -1.010000000
H    -4.825000000    -5.063000000    -1.771000000
O    -8.078000000    -5.115000000    -2.583000000
H    -7.187000000    -4.926000000    -2.876000000
H    -8.639000000    -4.746000000    -3.265000000
O    -8.838000000    -1.526000000    -2.811000000
H    -9.443000000    -1.592000000    -3.550000000
H    -8.007000000    -1.261000000    -3.206000000
O    -6.630000000    -4.564000000     0.543000000
H    -5.861000000    -3.994000000     0.530000000
H    -7.342000000    -3.999000000     0.842000000
O    -6.898000000    -1.592000000    -0.815000000
H    -7.433000000    -2.136000000    -1.392000000
H    -6.005000000    -1.912000000    -0.945000000
O    -3.928000000    -8.725000000     0.806000000
H    -3.510000000    -8.242000000     0.094000000
H    -4.784000000    -8.309000000     0.907000000
O    -3.586000000    -2.553000000    -7.345000000
H    -3.102000000    -2.905000000    -8.092000000
H    -4.505000000    -2.713000000    -7.559000000
O    -3.494000000    -0.106000000    -6.092000000
H    -3.689000000    -1.007000000    -6.350000000
H    -2.949000000    -0.193000000    -5.310000000
O    -5.389000000     1.258000000    -3.487000000
H    -5.857000000     1.844000000    -2.892000000
H    -4.475000000     1.315000000    -3.208000000
O    -6.191000000    -7.124000000     1.479000000
H    -7.117000000    -7.190000000     1.711000000
H    -6.072000000    -6.208000000     1.227000000
O    -7.591000000     0.901000000     0.434000000
H    -7.624000000    -0.017000000     0.163000000
H    -6.669000000     1.142000000     0.350000000
O    -2.075000000    -2.612000000    -4.899000000
H    -2.522000000    -3.140000000    -4.237000000
H    -2.743000000    -2.445000000    -5.563000000
O    -5.896000000    -6.198000000    -5.481000000
H    -5.734000000    -6.869000000    -4.817000000
H    -5.861000000    -5.372000000    -4.999000000
O    -2.514000000    -5.669000000    -3.971000000
H    -2.581000000    -4.776000000    -3.633000000
H    -1.585000000    -5.887000000    -3.889000000
O    -2.373000000    -5.833000000    -6.668000000
H    -2.255000000    -4.883000000    -6.629000000
H    -2.693000000    -6.070000000    -5.798000000
O    -4.296000000    -7.899000000    -3.689000000
H    -5.010000000    -7.915000000    -3.051000000
H    -3.792000000    -7.117000000    -3.464000000
O    -3.252000000     1.193000000    -2.088000000
H    -2.421000000     0.879000000    -2.445000000
H    -3.285000000     0.829000000    -1.203000000
O    -5.485000000    -4.086000000    -3.920000000
H    -4.824000000    -3.975000000    -3.237000000
H    -5.895000000    -3.224000000    -3.999000000
