218
-1446.18045
C    -2.453000000     4.397000000     1.627000000
H    -1.612000000     5.042000000     1.386000000
C    -2.292000000     3.295000000     2.429000000
C    -3.359000000     2.482000000     2.686000000
H    -3.223000000     1.597000000     3.302000000
C    -0.847000000     2.830000000     2.883000000
O     0.083000000     3.901000000     2.922000000
H    -0.550000000     2.048000000     2.169000000
O    -0.770000000     2.239000000     4.244000000
C     0.152000000     1.214000000     4.410000000
C    -0.366000000    -0.060000000     4.428000000
H    -1.441000000    -0.216000000     4.395000000
C     0.467000000    -1.172000000     4.651000000
O    -0.089000000    -2.416000000     4.619000000
C     1.776000000    -1.004000000     4.631000000
C     2.741000000    -2.203000000     4.572000000
H     3.693000000    -1.934000000     5.035000000
C     2.922000000    -2.634000000     3.100000000
C     3.962000000    -2.073000000     2.323000000
H     4.506000000    -1.223000000     2.725000000
H     2.360000000    -3.000000000     5.214000000
C     2.326000000     0.267000000     4.580000000
H     3.405000000     0.354000000     4.680000000
C     1.543000000     1.387000000     4.394000000
C     2.200000000     2.741000000     4.290000000
H     3.171000000     2.626000000     4.776000000
H     1.628000000     3.479000000     4.855000000
C     2.325000000     3.189000000     2.802000000
C     3.499000000     2.825000000     2.054000000
H     4.377000000     2.322000000     2.450000000
C     1.246000000     3.816000000     2.228000000
C     1.204000000     4.079000000     0.907000000
H     0.313000000     4.471000000     0.423000000
C     2.335000000     3.745000000     0.106000000
O     2.325000000     4.039000000    -1.242000000
C     2.005000000     2.958000000    -2.083000000
C     0.950000000     3.347000000    -3.026000000
C     0.787000000     2.515000000    -4.193000000
H     1.490000000     1.733000000    -4.465000000
C     0.055000000     4.436000000    -2.909000000
H     0.195000000     5.121000000    -2.077000000
O     3.227000000     2.508000000    -2.768000000
H     1.575000000     2.127000000    -1.505000000
C     3.494000000     3.247000000     0.711000000
C     4.657000000     2.994000000    -0.165000000
H     5.616000000     3.022000000     0.358000000
H     4.685000000     3.745000000    -0.957000000
C     4.523000000     1.646000000    -0.881000000
C     4.910000000     0.569000000    -0.126000000
H     5.247000000     0.659000000     0.904000000
C     3.850000000     1.477000000    -2.097000000
C     3.719000000     0.173000000    -2.629000000
H     3.204000000     0.024000000    -3.575000000
C     4.194000000    -0.996000000    -1.945000000
O     3.795000000    -2.263000000    -2.377000000
C     2.803000000    -3.018000000    -1.671000000
C     1.920000000    -3.673000000    -2.800000000
C     1.368000000    -2.815000000    -3.811000000
H     1.724000000    -1.790000000    -3.878000000
C     1.505000000    -4.942000000    -2.662000000
H     1.955000000    -5.649000000    -1.970000000
O     3.479000000    -3.907000000    -0.767000000
H     2.140000000    -2.363000000    -1.087000000
C     4.741000000    -0.774000000    -0.678000000
C     5.284000000    -1.932000000     0.171000000
H     6.162000000    -1.653000000     0.756000000
H     5.626000000    -2.781000000    -0.425000000
C     4.183000000    -2.574000000     1.060000000
C     3.365000000    -3.542000000     0.500000000
C     2.307000000    -4.049000000     1.269000000
H     1.702000000    -4.878000000     0.912000000
C     2.113000000    -3.620000000     2.560000000
O     0.934000000    -4.121000000     3.193000000
C    -0.148000000    -3.106000000     3.310000000
H    -0.037000000    -2.321000000     2.547000000
C    -1.552000000    -3.558000000     3.028000000
C    -2.689000000    -3.104000000     3.704000000
H    -2.625000000    -2.512000000     4.614000000
C    -1.694000000    -4.250000000     1.859000000
H    -0.833000000    -4.495000000     1.242000000
C    -2.972000000    -4.610000000     1.394000000
O    -3.211000000    -5.435000000     0.316000000
C    -4.061000000    -3.988000000     2.029000000
H    -5.045000000    -4.118000000     1.586000000
C    -3.988000000    -3.243000000     3.197000000
O    -5.100000000    -2.681000000     3.703000000
C    -5.243000000    -1.342000000     4.001000000
C    -5.476000000    -0.430000000     3.018000000
H    -5.320000000    -0.739000000     1.987000000
C    -5.172000000    -0.993000000     5.333000000
H    -4.971000000    -1.805000000     6.027000000
C    -5.463000000     0.326000000     5.696000000
H    -5.425000000     0.690000000     6.720000000
C    -5.588000000     1.287000000     4.716000000
H    -5.622000000     2.336000000     5.001000000
C    -5.681000000     0.911000000     3.395000000
O    -5.753000000     1.954000000     2.536000000
C    -4.658000000     2.774000000     2.208000000
C    -4.796000000     3.894000000     1.414000000
H    -5.690000000     4.161000000     0.857000000
C    -3.713000000     4.728000000     1.133000000
O    -3.976000000     5.786000000     0.332000000
C    -3.203000000     6.407000000    -0.633000000
C    -2.660000000     5.708000000    -1.695000000
H    -2.527000000     4.630000000    -1.677000000
C    -3.271000000     7.838000000    -0.691000000
H    -3.675000000     8.472000000     0.094000000
C    -2.774000000     8.519000000    -1.818000000
H    -2.705000000     9.604000000    -1.835000000
C    -2.250000000     7.796000000    -2.887000000
H    -1.899000000     8.361000000    -3.747000000
C    -2.233000000     6.448000000    -2.865000000
O    -1.709000000     5.812000000    -3.921000000
C    -0.894000000     4.647000000    -3.904000000
C    -0.960000000     3.818000000    -4.975000000
H    -1.749000000     3.999000000    -5.701000000
C    -0.182000000     2.772000000    -5.137000000
O    -0.307000000     2.157000000    -6.324000000
C     0.201000000     0.938000000    -6.599000000
C    -0.313000000    -0.235000000    -6.022000000
H    -1.130000000    -0.133000000    -5.312000000
C     1.211000000     0.826000000    -7.524000000
H     1.546000000     1.695000000    -8.084000000
C     1.810000000    -0.346000000    -7.759000000
H     2.617000000    -0.411000000    -8.484000000
C     1.376000000    -1.507000000    -7.144000000
H     1.906000000    -2.453000000    -7.230000000
C     0.299000000    -1.505000000    -6.297000000
O    -0.194000000    -2.646000000    -5.723000000
C     0.438000000    -3.318000000    -4.717000000
C    -0.042000000    -4.620000000    -4.538000000
H    -0.923000000    -4.872000000    -5.122000000
C     0.481000000    -5.435000000    -3.501000000
O    -0.040000000    -6.681000000    -3.251000000
C    -0.814000000    -6.944000000    -2.126000000
C    -0.500000000    -8.078000000    -1.472000000
H     0.144000000    -8.800000000    -1.967000000
C    -0.943000000    -8.320000000    -0.193000000
H    -0.551000000    -9.232000000     0.250000000
C    -1.896000000    -7.441000000     0.381000000
H    -2.393000000    -7.569000000     1.339000000
C    -2.249000000    -6.254000000    -0.262000000
C    -1.694000000    -6.052000000    -1.556000000
H    -1.837000000    -5.139000000    -2.129000000
C    -1.479000000    -1.587000000    -1.771000000
H    -1.489000000    -2.002000000    -2.776000000
C    -0.280000000    -1.083000000    -1.266000000
H     0.624000000    -1.116000000    -1.869000000
C    -0.205000000    -0.596000000     0.026000000
C     1.124000000    -0.120000000     0.528000000
H     1.066000000     0.869000000     0.987000000
H     1.458000000    -0.880000000     1.238000000
H     1.876000000    -0.130000000    -0.264000000
C    -1.357000000    -0.617000000     0.807000000
H    -1.383000000    -0.137000000     1.781000000
C    -2.573000000    -1.034000000     0.245000000
H    -3.473000000    -0.823000000     0.816000000
C    -2.664000000    -1.529000000    -1.043000000
C    -4.091000000    -1.712000000    -1.614000000
O    -5.033000000    -1.590000000    -0.878000000
O    -4.311000000    -2.134000000    -2.724000000
O    -3.275000000     1.277000000    -4.947000000
H    -3.936000000     1.853000000    -5.331000000
H    -3.657000000     0.401000000    -5.004000000
O    -5.159000000    -6.490000000    -2.664000000
H    -4.733000000    -7.345000000    -2.715000000
H    -4.674000000    -5.943000000    -3.281000000
O    -7.833000000    -3.239000000     1.785000000
H    -7.369000000    -3.837000000     2.371000000
H    -7.285000000    -3.201000000     1.001000000
O    -2.597000000    -3.620000000    -6.640000000
H    -1.922000000    -2.942000000    -6.671000000
H    -3.135000000    -3.458000000    -7.415000000
O    -9.146000000     2.418000000    -0.781000000
H    -8.529000000     1.762000000    -0.457000000
H    -9.963000000     2.227000000    -0.321000000
O    -7.048000000     0.213000000    -3.555000000
H    -7.063000000    -0.723000000    -3.356000000
H    -6.260000000     0.333000000    -4.086000000
O    -4.908000000     2.976000000    -2.773000000
H    -4.082000000     2.709000000    -2.370000000
H    -4.652000000     3.368000000    -3.608000000
O    -8.110000000    -0.344000000     1.317000000
H    -8.038000000    -1.245000000     1.000000000
H    -7.619000000     0.174000000     0.679000000
O    -6.584000000    -3.181000000    -6.438000000
H    -6.188000000    -3.443000000    -7.269000000
H    -6.373000000    -2.251000000    -6.355000000
O    -5.773000000    -0.688000000    -6.889000000
H    -4.891000000    -0.500000000    -7.209000000
H    -6.351000000    -0.398000000    -7.595000000
O    -7.103000000    -3.158000000    -0.772000000
H    -7.450000000    -2.923000000    -1.633000000
H    -6.230000000    -2.765000000    -0.752000000
O    -6.845000000    -2.565000000    -3.783000000
H    -6.067000000    -2.538000000    -3.226000000
H    -6.546000000    -2.980000000    -4.592000000
O    -3.776000000    -4.637000000    -4.227000000
H    -3.268000000    -4.399000000    -5.004000000
H    -3.837000000    -3.825000000    -3.724000000
O    -3.497000000    -1.524000000    -5.103000000
H    -3.262000000    -2.286000000    -5.632000000
H    -3.836000000    -1.893000000    -4.287000000
O    -6.354000000    -6.673000000     0.046000000
H    -5.831000000    -6.188000000    -0.593000000
H    -7.065000000    -7.055000000    -0.468000000
O    -9.090000000    -5.178000000    -0.165000000
H    -8.247000000    -4.734000000    -0.258000000
H    -9.685000000    -4.682000000    -0.727000000
O    -9.670000000    -2.368000000    -4.367000000
H    -8.726000000    -2.308000000    -4.511000000
H    -9.818000000    -1.897000000    -3.546000000
O    -2.357000000     1.393000000    -1.962000000
H    -2.556000000     0.811000000    -2.695000000
H    -1.999000000     0.816000000    -1.288000000
O    -6.581000000     0.752000000    -0.898000000
H    -6.153000000    -0.090000000    -0.742000000
H    -6.382000000     0.956000000    -1.812000000
