218
-1456.82822
C    -1.491000000     3.977000000     2.430000000
H    -0.714000000     4.392000000     1.792000000
C    -1.143000000     2.965000000     3.394000000
C    -2.103000000     2.357000000     4.188000000
H    -1.813000000     1.689000000     4.995000000
C     0.353000000     2.562000000     3.447000000
O     1.307000000     3.617000000     3.183000000
H     0.466000000     1.855000000     2.612000000
O     0.696000000     1.894000000     4.714000000
C     1.336000000     0.659000000     4.581000000
C     0.617000000    -0.484000000     4.672000000
H    -0.445000000    -0.368000000     4.871000000
C     1.137000000    -1.732000000     4.175000000
O     0.225000000    -2.801000000     4.061000000
C     2.481000000    -1.834000000     3.765000000
C     3.140000000    -3.071000000     3.284000000
H     4.206000000    -2.850000000     3.372000000
C     2.779000000    -3.431000000     1.827000000
C     3.822000000    -3.180000000     0.877000000
H     4.673000000    -2.616000000     1.251000000
H     3.046000000    -3.902000000     3.985000000
C     3.162000000    -0.627000000     3.733000000
H     4.174000000    -0.646000000     3.338000000
C     2.673000000     0.613000000     4.183000000
C     3.490000000     1.876000000     4.062000000
H     4.542000000     1.865000000     4.357000000
H     3.106000000     2.605000000     4.779000000
C     3.404000000     2.470000000     2.679000000
C     4.184000000     1.944000000     1.658000000
H     4.894000000     1.155000000     1.894000000
C     2.393000000     3.366000000     2.341000000
C     2.286000000     3.884000000     1.022000000
H     1.467000000     4.527000000     0.710000000
C     3.229000000     3.481000000     0.092000000
O     2.953000000     3.885000000    -1.172000000
C     2.248000000     2.966000000    -2.110000000
C     1.029000000     3.633000000    -2.836000000
C     0.676000000     3.184000000    -4.092000000
H     1.143000000     2.268000000    -4.446000000
C     0.462000000     4.829000000    -2.475000000
H     0.728000000     5.256000000    -1.511000000
O     3.253000000     2.402000000    -3.041000000
H     1.815000000     2.129000000    -1.541000000
C     4.124000000     2.476000000     0.365000000
C     5.109000000     2.056000000    -0.750000000
H     6.110000000     1.804000000    -0.392000000
H     5.202000000     2.942000000    -1.382000000
C     4.501000000     0.915000000    -1.610000000
C     4.843000000    -0.383000000    -1.213000000
H     5.490000000    -0.572000000    -0.360000000
C     3.717000000     1.168000000    -2.704000000
C     3.205000000     0.082000000    -3.384000000
H     2.540000000     0.197000000    -4.237000000
C     3.420000000    -1.231000000    -2.911000000
O     2.661000000    -2.281000000    -3.529000000
C     1.553000000    -2.795000000    -2.734000000
C     0.374000000    -2.956000000    -3.639000000
C     0.207000000    -2.247000000    -4.823000000
H     0.933000000    -1.483000000    -5.087000000
C    -0.606000000    -3.801000000    -3.151000000
H    -0.489000000    -4.373000000    -2.234000000
O     1.955000000    -4.063000000    -2.112000000
H     1.239000000    -2.192000000    -1.870000000
C     4.315000000    -1.496000000    -1.875000000
C     4.584000000    -2.954000000    -1.517000000
H     5.567000000    -2.866000000    -1.051000000
H     4.526000000    -3.680000000    -2.331000000
C     3.569000000    -3.477000000    -0.459000000
C     2.330000000    -4.003000000    -0.806000000
C     1.331000000    -4.305000000     0.094000000
H     0.335000000    -4.568000000    -0.255000000
C     1.608000000    -4.042000000     1.430000000
O     0.558000000    -4.292000000     2.270000000
C    -0.216000000    -3.177000000     2.735000000
H     0.007000000    -2.393000000     1.996000000
C    -1.762000000    -3.427000000     2.651000000
C    -2.684000000    -2.717000000     3.428000000
H    -2.370000000    -1.918000000     4.094000000
C    -2.152000000    -4.462000000     1.808000000
H    -1.451000000    -5.101000000     1.278000000
C    -3.536000000    -4.776000000     1.802000000
O    -3.978000000    -5.846000000     1.017000000
C    -4.413000000    -4.042000000     2.479000000
H    -5.449000000    -4.321000000     2.309000000
C    -4.020000000    -3.022000000     3.336000000
O    -5.046000000    -2.375000000     4.010000000
C    -4.759000000    -1.400000000     4.929000000
C    -4.681000000    -0.049000000     4.557000000
H    -4.889000000     0.249000000     3.532000000
C    -4.478000000    -1.783000000     6.293000000
H    -4.577000000    -2.842000000     6.522000000
C    -4.216000000    -0.859000000     7.232000000
H    -4.127000000    -1.156000000     8.274000000
C    -4.105000000     0.492000000     6.843000000
H    -3.847000000     1.274000000     7.553000000
C    -4.385000000     0.907000000     5.534000000
O    -4.282000000     2.235000000     5.043000000
C    -3.390000000     2.700000000     4.096000000
C    -3.795000000     3.658000000     3.113000000
H    -4.843000000     3.939000000     3.047000000
C    -2.876000000     4.284000000     2.344000000
O    -3.400000000     5.198000000     1.419000000
C    -2.684000000     6.114000000     0.665000000
C    -2.187000000     5.807000000    -0.567000000
H    -2.153000000     4.781000000    -0.923000000
C    -2.738000000     7.456000000     1.077000000
H    -3.306000000     7.655000000     1.983000000
C    -2.250000000     8.488000000     0.287000000
H    -2.349000000     9.510000000     0.646000000
C    -1.704000000     8.183000000    -0.957000000
H    -1.282000000     8.984000000    -1.558000000
C    -1.687000000     6.870000000    -1.409000000
O    -1.206000000     6.569000000    -2.660000000
C    -0.676000000     5.362000000    -3.078000000
C    -0.986000000     4.904000000    -4.354000000
H    -1.725000000     5.417000000    -4.965000000
C    -0.297000000     3.787000000    -4.925000000
O    -0.670000000     3.339000000    -6.168000000
C    -0.305000000     2.150000000    -6.728000000
C    -1.007000000     0.957000000    -6.488000000
H    -1.874000000     0.932000000    -5.833000000
C     0.705000000     2.083000000    -7.649000000
H     1.101000000     3.066000000    -7.888000000
C     1.051000000     0.866000000    -8.257000000
H     1.855000000     0.893000000    -8.989000000
C     0.462000000    -0.345000000    -7.830000000
H     0.840000000    -1.311000000    -8.156000000
C    -0.618000000    -0.311000000    -7.024000000
O    -1.250000000    -1.528000000    -6.671000000
C    -1.000000000    -2.337000000    -5.523000000
C    -1.919000000    -3.236000000    -5.018000000
H    -2.862000000    -3.343000000    -5.550000000
C    -1.762000000    -3.951000000    -3.828000000
O    -2.752000000    -4.844000000    -3.449000000
C    -2.727000000    -5.746000000    -2.394000000
C    -1.870000000    -6.844000000    -2.397000000
H    -1.193000000    -7.050000000    -3.222000000
C    -1.629000000    -7.517000000    -1.182000000
H    -0.906000000    -8.326000000    -1.250000000
C    -2.349000000    -7.205000000    -0.095000000
H    -2.234000000    -7.729000000     0.851000000
C    -3.287000000    -6.214000000    -0.139000000
C    -3.489000000    -5.439000000    -1.262000000
H    -4.078000000    -4.526000000    -1.217000000
C    -2.361000000    -1.655000000    -0.099000000
H    -2.859000000    -2.544000000    -0.477000000
C    -0.969000000    -1.519000000    -0.320000000
H    -0.337000000    -2.307000000    -0.723000000
C    -0.369000000    -0.413000000     0.141000000
C     1.153000000    -0.256000000     0.126000000
H     1.636000000    -0.430000000    -0.838000000
H     1.446000000     0.704000000     0.556000000
H     1.468000000    -0.989000000     0.872000000
C    -1.127000000     0.642000000     0.685000000
H    -0.664000000     1.606000000     0.880000000
C    -2.503000000     0.588000000     0.835000000
H    -3.063000000     1.390000000     1.309000000
C    -3.147000000    -0.560000000     0.411000000
C    -4.620000000    -0.626000000     0.604000000
O    -5.199000000     0.330000000     0.982000000
O    -5.266000000    -1.549000000     0.153000000
O    -2.846000000     2.270000000    -1.653000000
H    -2.478000000     1.728000000    -2.351000000
H    -2.491000000     1.895000000    -0.847000000
O    -8.676000000     3.415000000     2.909000000
H    -8.774000000     4.271000000     2.492000000
H    -7.943000000     3.007000000     2.449000000
O    -6.652000000     2.514000000     1.261000000
H    -6.076000000     1.768000000     1.094000000
H    -6.684000000     2.984000000     0.427000000
O    -8.366000000    -0.167000000    -0.594000000
H    -9.010000000     0.228000000    -0.005000000
H    -7.528000000     0.201000000    -0.313000000
O    -9.600000000     1.270000000     1.337000000
H    -9.525000000     2.202000000     1.540000000
H   -10.405000000     0.994000000     1.776000000
O    -8.101000000    -0.309000000     6.552000000
H    -7.633000000     0.522000000     6.472000000
H    -7.564000000    -0.935000000     6.066000000
O    -5.471000000    -2.450000000    -2.428000000
H    -6.192000000    -1.848000000    -2.615000000
H    -5.250000000    -2.281000000    -1.512000000
O    -8.370000000    -2.197000000     4.223000000
H    -7.738000000    -2.866000000     4.488000000
H    -7.904000000    -1.673000000     3.571000000
O    -5.362000000    -4.232000000    -4.699000000
H    -5.739000000    -3.862000000    -3.901000000
H    -4.505000000    -4.562000000    -4.428000000
O    -6.054000000     3.280000000    -1.309000000
H    -5.899000000     3.025000000    -2.218000000
H    -5.198000000     3.201000000    -0.888000000
O    -8.960000000    -2.837000000    -1.715000000
H    -9.227000000    -1.934000000    -1.544000000
H    -8.083000000    -2.903000000    -1.337000000
O    -7.185000000    -3.300000000     0.432000000
H    -6.312000000    -2.920000000     0.326000000
H    -7.610000000    -2.744000000     1.086000000
O    -7.249000000    -0.599000000     2.448000000
H    -7.989000000    -0.138000000     2.052000000
H    -6.486000000    -0.290000000     1.960000000
O    -3.494000000    -0.010000000    -3.918000000
H    -3.001000000    -0.440000000    -4.617000000
H    -3.952000000    -0.723000000    -3.474000000
O    -5.245000000     2.335000000    -3.870000000
H    -5.921000000     2.018000000    -4.469000000
H    -4.677000000     1.578000000    -3.728000000
O    -8.022000000    -5.865000000     0.420000000
H    -7.535000000    -5.109000000     0.094000000
H    -7.432000000    -6.276000000     1.052000000
O    -7.396000000    -0.328000000    -3.180000000
H    -7.887000000    -0.418000000    -2.364000000
H    -7.730000000     0.479000000    -3.573000000
O    -7.155000000     2.394000000     6.360000000
H    -6.873000000     2.469000000     5.448000000
H    -7.458000000     3.272000000     6.590000000
O    -8.552000000     4.172000000    -1.012000000
H    -8.607000000     4.739000000    -0.243000000
H    -7.613000000     4.041000000    -1.146000000
