218
-1479.19748
C    -2.342000000     3.854000000     3.103000000
H    -1.566000000     4.576000000     2.861000000
C    -1.971000000     2.549000000     3.665000000
C    -3.055000000     1.708000000     3.983000000
H    -2.901000000     0.743000000     4.461000000
C    -0.542000000     2.053000000     3.759000000
O     0.368000000     3.154000000     3.859000000
H    -0.480000000     1.367000000     2.901000000
O    -0.313000000     1.226000000     4.915000000
C     0.631000000     0.155000000     4.779000000
C     0.040000000    -1.077000000     4.525000000
H    -1.037000000    -1.224000000     4.555000000
C     0.821000000    -2.134000000     4.036000000
O     0.160000000    -3.322000000     3.747000000
C     2.231000000    -2.031000000     3.951000000
C     3.112000000    -3.270000000     3.533000000
H     4.131000000    -3.123000000     3.899000000
C     3.202000000    -3.445000000     2.041000000
C     4.055000000    -2.560000000     1.302000000
H     4.785000000    -1.937000000     1.811000000
H     2.838000000    -4.200000000     4.037000000
C     2.817000000    -0.834000000     4.399000000
H     3.903000000    -0.806000000     4.419000000
C     2.027000000     0.310000000     4.732000000
C     2.726000000     1.652000000     4.776000000
H     3.760000000     1.527000000     5.105000000
H     2.185000000     2.302000000     5.467000000
C     2.711000000     2.471000000     3.454000000
C     3.758000000     2.414000000     2.516000000
H     4.667000000     1.844000000     2.692000000
C     1.505000000     3.237000000     3.057000000
C     1.354000000     3.874000000     1.913000000
H     0.477000000     4.496000000     1.751000000
C     2.405000000     3.693000000     0.997000000
O     2.182000000     4.307000000    -0.225000000
C     1.821000000     3.507000000    -1.377000000
C     0.738000000     4.114000000    -2.240000000
C     0.925000000     4.036000000    -3.633000000
H     1.717000000     3.437000000    -4.076000000
C    -0.375000000     4.677000000    -1.681000000
H    -0.562000000     4.617000000    -0.612000000
O     3.005000000     3.311000000    -2.155000000
H     1.387000000     2.551000000    -1.048000000
C     3.640000000     3.049000000     1.295000000
C     4.703000000     3.036000000     0.194000000
H     5.667000000     2.985000000     0.704000000
H     4.737000000     3.991000000    -0.335000000
C     4.450000000     1.919000000    -0.714000000
C     4.930000000     0.611000000    -0.431000000
H     5.581000000     0.438000000     0.423000000
C     3.721000000     2.146000000    -1.910000000
C     3.453000000     1.061000000    -2.788000000
H     2.780000000     1.312000000    -3.603000000
C     3.744000000    -0.245000000    -2.407000000
O     3.257000000    -1.301000000    -3.132000000
C     2.308000000    -2.215000000    -2.521000000
C     1.243000000    -2.461000000    -3.556000000
C     0.984000000    -1.440000000    -4.456000000
H     1.442000000    -0.455000000    -4.484000000
C     0.504000000    -3.669000000    -3.527000000
H     0.579000000    -4.285000000    -2.634000000
O     2.948000000    -3.454000000    -2.110000000
H     1.892000000    -1.699000000    -1.643000000
C     4.624000000    -0.452000000    -1.290000000
C     5.141000000    -1.857000000    -0.883000000
H     6.087000000    -1.793000000    -0.340000000
H     5.424000000    -2.447000000    -1.757000000
C     4.088000000    -2.582000000    -0.101000000
C     3.134000000    -3.413000000    -0.763000000
C     2.278000000    -4.174000000     0.009000000
H     1.558000000    -4.794000000    -0.519000000
C     2.238000000    -4.137000000     1.348000000
O     1.238000000    -4.755000000     2.068000000
C     0.171000000    -3.835000000     2.381000000
H     0.373000000    -2.939000000     1.775000000
C    -1.194000000    -4.164000000     1.867000000
C    -2.268000000    -3.288000000     2.211000000
H    -2.093000000    -2.346000000     2.725000000
C    -1.384000000    -5.269000000     1.058000000
H    -0.540000000    -5.810000000     0.639000000
C    -2.640000000    -5.602000000     0.602000000
O    -2.820000000    -6.630000000    -0.300000000
C    -3.712000000    -4.852000000     1.016000000
H    -4.698000000    -5.062000000     0.610000000
C    -3.543000000    -3.683000000     1.783000000
O    -4.620000000    -2.834000000     2.041000000
C    -4.904000000    -2.190000000     3.156000000
C    -4.940000000    -0.789000000     3.139000000
H    -4.712000000    -0.300000000     2.195000000
C    -5.352000000    -2.868000000     4.289000000
H    -5.326000000    -3.951000000     4.196000000
C    -5.733000000    -2.195000000     5.410000000
H    -6.073000000    -2.788000000     6.256000000
C    -5.741000000    -0.770000000     5.419000000
H    -6.059000000    -0.237000000     6.311000000
C    -5.330000000    -0.099000000     4.270000000
O    -5.430000000     1.293000000     4.272000000
C    -4.397000000     2.105000000     3.838000000
C    -4.688000000     3.366000000     3.273000000
H    -5.716000000     3.717000000     3.233000000
C    -3.699000000     4.251000000     2.977000000
O    -4.037000000     5.531000000     2.525000000
C    -3.293000000     6.161000000     1.529000000
C    -3.341000000     5.668000000     0.212000000
H    -3.784000000     4.688000000     0.053000000
C    -2.757000000     7.399000000     1.796000000
H    -2.817000000     7.836000000     2.789000000
C    -2.135000000     8.143000000     0.782000000
H    -1.699000000     9.073000000     1.137000000
C    -2.014000000     7.592000000    -0.442000000
H    -1.424000000     8.072000000    -1.219000000
C    -2.622000000     6.393000000    -0.758000000
O    -2.469000000     5.888000000    -2.024000000
C    -1.330000000     5.250000000    -2.523000000
C    -1.206000000     5.022000000    -3.917000000
H    -2.081000000     5.217000000    -4.532000000
C    -0.077000000     4.472000000    -4.461000000
O     0.016000000     4.210000000    -5.817000000
C     0.409000000     2.964000000    -6.364000000
C    -0.306000000     1.832000000    -6.031000000
H    -1.166000000     1.950000000    -5.378000000
C     1.496000000     2.906000000    -7.199000000
H     1.975000000     3.801000000    -7.587000000
C     2.026000000     1.637000000    -7.507000000
H     2.977000000     1.735000000    -8.024000000
C     1.294000000     0.505000000    -7.209000000
H     1.662000000    -0.478000000    -7.490000000
C     0.099000000     0.534000000    -6.447000000
O    -0.599000000    -0.595000000    -6.084000000
C    -0.072000000    -1.607000000    -5.287000000
C    -0.806000000    -2.814000000    -5.338000000
H    -1.676000000    -2.767000000    -5.987000000
C    -0.509000000    -3.876000000    -4.471000000
O    -1.237000000    -5.000000000    -4.569000000
C    -1.271000000    -5.941000000    -3.569000000
C    -1.252000000    -7.240000000    -4.128000000
H    -0.944000000    -7.379000000    -5.161000000
C    -1.671000000    -8.300000000    -3.294000000
H    -1.566000000    -9.285000000    -3.742000000
C    -2.102000000    -8.106000000    -1.992000000
H    -2.521000000    -8.903000000    -1.383000000
C    -2.107000000    -6.760000000    -1.478000000
C    -1.756000000    -5.688000000    -2.298000000
H    -1.847000000    -4.684000000    -1.891000000
C    -2.283000000    -1.367000000    -1.512000000
H    -2.384000000    -2.205000000    -2.198000000
C    -1.020000000    -0.978000000    -0.997000000
H    -0.125000000    -1.543000000    -1.245000000
C    -0.969000000     0.133000000    -0.093000000
C     0.279000000     0.619000000     0.457000000
H     0.177000000     1.692000000     0.632000000
H     0.649000000     0.118000000     1.355000000
H     1.124000000     0.373000000    -0.189000000
C    -2.106000000     0.840000000     0.236000000
H    -2.029000000     1.680000000     0.921000000
C    -3.303000000     0.273000000    -0.178000000
H    -4.193000000     0.833000000     0.096000000
C    -3.437000000    -0.818000000    -1.014000000
C    -4.798000000    -1.380000000    -1.411000000
O    -5.794000000    -0.743000000    -1.143000000
O    -4.829000000    -2.487000000    -1.913000000
O    -2.210000000     2.049000000    -2.698000000
H    -1.279000000     2.149000000    -2.501000000
H    -2.589000000     1.696000000    -1.893000000
O   -10.137000000    -1.637000000    -3.560000000
H   -10.507000000    -2.311000000    -4.129000000
H    -9.278000000    -1.978000000    -3.310000000
O    -3.984000000    -0.083000000    -4.665000000
H    -3.318000000     0.119000000    -4.008000000
H    -3.883000000     0.602000000    -5.326000000
O    -6.205000000     4.025000000    -1.518000000
H    -5.599000000     3.478000000    -2.019000000
H    -6.620000000     3.420000000    -0.903000000
O    -7.709000000    -2.273000000    -2.152000000
H    -6.769000000    -2.224000000    -1.977000000
H    -7.921000000    -3.202000000    -2.067000000
O    -7.907000000    -0.666000000     1.870000000
H    -7.640000000    -0.231000000     1.060000000
H    -7.709000000    -1.591000000     1.722000000
O    -9.133000000    -0.267000000    -0.944000000
H    -9.816000000    -0.448000000    -1.590000000
H    -8.442000000    -0.899000000    -1.143000000
O    -4.767000000    -2.709000000    -4.625000000
H    -4.498000000    -1.804000000    -4.781000000
H    -4.580000000    -2.858000000    -3.698000000
O    -8.221000000    -3.236000000    -5.232000000
H    -7.756000000    -2.630000000    -4.655000000
H    -7.877000000    -4.099000000    -5.001000000
O    -4.623000000     2.959000000    -3.466000000
H    -4.831000000     2.793000000    -4.386000000
H    -3.666000000     2.964000000    -3.435000000
O    -5.418000000    -5.188000000    -2.251000000
H    -4.653000000    -5.763000000    -2.248000000
H    -5.064000000    -4.316000000    -2.078000000
O    -7.055000000     1.561000000    -0.590000000
H    -8.012000000     1.590000000    -0.591000000
H    -6.841000000     0.678000000    -0.893000000
O    -7.465000000    -3.209000000     1.601000000
H    -7.610000000    -3.923000000     2.222000000
H    -6.525000000    -3.237000000     1.420000000
O    -3.463000000    -4.592000000    -6.002000000
H    -4.139000000    -4.094000000    -5.543000000
H    -2.918000000    -4.955000000    -5.304000000
O    -6.922000000     0.767000000    -3.435000000
H    -6.355000000     1.532000000    -3.345000000
H    -6.758000000     0.253000000    -2.644000000
O    -8.961000000     0.698000000    -5.235000000
H    -8.281000000     0.751000000    -4.563000000
H    -9.700000000     0.278000000    -4.795000000
O    -6.460000000    -0.323000000    -6.644000000
H    -7.387000000    -0.389000000    -6.415000000
H    -6.000000000    -0.421000000    -5.810000000
O    -9.794000000    -3.955000000    -0.222000000
H    -9.100000000    -3.506000000     0.261000000
H    -9.372000000    -4.248000000    -1.030000000
O    -8.174000000    -5.013000000    -2.161000000
H    -7.330000000    -5.464000000    -2.172000000
H    -8.723000000    -5.517000000    -2.761000000
