218
-1463.13342
C    -2.639000000     3.828000000     2.116000000
H    -1.880000000     4.372000000     1.560000000
C    -2.251000000     2.933000000     3.092000000
C    -3.276000000     2.159000000     3.697000000
H    -3.014000000     1.335000000     4.356000000
C    -0.789000000     2.515000000     3.324000000
O     0.063000000     3.639000000     3.430000000
H    -0.471000000     1.882000000     2.482000000
O    -0.631000000     1.741000000     4.498000000
C     0.152000000     0.596000000     4.487000000
C    -0.486000000    -0.599000000     4.403000000
H    -1.570000000    -0.647000000     4.465000000
C     0.207000000    -1.802000000     4.225000000
O    -0.528000000    -2.868000000     3.803000000
C     1.603000000    -1.783000000     4.185000000
C     2.380000000    -3.043000000     3.864000000
H     3.331000000    -3.032000000     4.400000000
C     2.599000000    -3.170000000     2.404000000
C     3.747000000    -2.655000000     1.913000000
H     4.538000000    -2.180000000     2.488000000
H     1.783000000    -3.891000000     4.208000000
C     2.201000000    -0.541000000     4.266000000
H     3.285000000    -0.516000000     4.196000000
C     1.522000000     0.664000000     4.354000000
C     2.223000000     1.975000000     4.571000000
H     3.193000000     1.713000000     4.999000000
H     1.690000000     2.634000000     5.260000000
C     2.344000000     2.765000000     3.237000000
C     3.457000000     2.525000000     2.449000000
H     4.303000000     2.045000000     2.934000000
C     1.265000000     3.453000000     2.704000000
C     1.333000000     4.038000000     1.446000000
H     0.481000000     4.649000000     1.159000000
C     2.462000000     3.877000000     0.650000000
O     2.465000000     4.344000000    -0.640000000
C     2.239000000     3.345000000    -1.652000000
C     1.227000000     3.847000000    -2.678000000
C     1.236000000     3.338000000    -3.973000000
H     2.073000000     2.719000000    -4.286000000
C     0.162000000     4.620000000    -2.274000000
H     0.122000000     4.899000000    -1.225000000
O     3.464000000     2.864000000    -2.294000000
H     1.829000000     2.461000000    -1.142000000
C     3.513000000     3.051000000     1.142000000
C     4.732000000     2.846000000     0.239000000
H     5.643000000     2.763000000     0.837000000
H     5.032000000     3.707000000    -0.363000000
C     4.636000000     1.617000000    -0.576000000
C     4.824000000     0.363000000     0.004000000
H     5.222000000     0.251000000     1.009000000
C     4.018000000     1.698000000    -1.843000000
C     3.748000000     0.566000000    -2.584000000
H     3.123000000     0.581000000    -3.474000000
C     4.182000000    -0.695000000    -2.066000000
O     3.899000000    -1.734000000    -2.926000000
C     2.760000000    -2.515000000    -2.554000000
C     1.906000000    -2.990000000    -3.718000000
C     1.854000000    -2.209000000    -4.889000000
H     2.506000000    -1.358000000    -5.068000000
C     0.831000000    -3.836000000    -3.479000000
H     0.837000000    -4.362000000    -2.528000000
O     3.244000000    -3.591000000    -1.712000000
H     2.127000000    -1.952000000    -1.852000000
C     4.601000000    -0.778000000    -0.738000000
C     5.186000000    -2.044000000    -0.111000000
H     5.881000000    -1.935000000     0.725000000
H     5.545000000    -2.786000000    -0.826000000
C     3.979000000    -2.710000000     0.535000000
C     3.110000000    -3.414000000    -0.302000000
C     1.946000000    -3.953000000     0.242000000
H     1.210000000    -4.524000000    -0.318000000
C     1.663000000    -3.823000000     1.578000000
O     0.455000000    -4.184000000     2.045000000
C    -0.529000000    -3.209000000     2.424000000
H    -0.516000000    -2.317000000     1.782000000
C    -1.910000000    -3.790000000     2.184000000
C    -2.991000000    -3.216000000     2.781000000
H    -2.924000000    -2.529000000     3.621000000
C    -2.144000000    -4.746000000     1.162000000
H    -1.323000000    -5.142000000     0.569000000
C    -3.474000000    -5.168000000     0.818000000
O    -3.743000000    -6.108000000    -0.169000000
C    -4.536000000    -4.592000000     1.570000000
H    -5.575000000    -4.857000000     1.391000000
C    -4.315000000    -3.670000000     2.571000000
O    -5.361000000    -3.178000000     3.221000000
C    -5.233000000    -2.048000000     4.040000000
C    -5.529000000    -0.725000000     3.600000000
H    -5.779000000    -0.567000000     2.554000000
C    -4.829000000    -2.280000000     5.358000000
H    -4.637000000    -3.294000000     5.699000000
C    -4.817000000    -1.218000000     6.266000000
H    -4.363000000    -1.359000000     7.243000000
C    -5.220000000     0.073000000     5.843000000
H    -5.146000000     0.899000000     6.546000000
C    -5.434000000     0.342000000     4.512000000
O    -5.580000000     1.662000000     4.121000000
C    -4.637000000     2.332000000     3.387000000
C    -4.962000000     3.327000000     2.541000000
H    -6.001000000     3.598000000     2.374000000
C    -3.957000000     4.062000000     1.821000000
O    -4.373000000     4.877000000     0.817000000
C    -3.529000000     5.800000000     0.260000000
C    -2.905000000     5.521000000    -0.976000000
H    -3.070000000     4.535000000    -1.403000000
C    -3.433000000     7.101000000     0.739000000
H    -3.886000000     7.402000000     1.680000000
C    -2.685000000     8.072000000     0.049000000
H    -2.616000000     9.067000000     0.482000000
C    -2.110000000     7.742000000    -1.204000000
H    -1.617000000     8.505000000    -1.801000000
C    -2.167000000     6.424000000    -1.679000000
O    -1.725000000     6.078000000    -2.925000000
C    -0.778000000     5.046000000    -3.224000000
C    -0.835000000     4.482000000    -4.506000000
H    -1.581000000     4.907000000    -5.172000000
C     0.165000000     3.582000000    -4.862000000
O     0.101000000     2.968000000    -6.098000000
C     0.854000000     1.947000000    -6.549000000
C     0.371000000     0.647000000    -6.621000000
H    -0.648000000     0.366000000    -6.369000000
C     2.152000000     2.185000000    -6.820000000
H     2.475000000     3.217000000    -6.713000000
C     3.014000000     1.169000000    -7.258000000
H     4.061000000     1.338000000    -7.496000000
C     2.539000000    -0.100000000    -7.244000000
H     3.163000000    -0.972000000    -7.424000000
C     1.189000000    -0.380000000    -7.045000000
O     0.720000000    -1.606000000    -6.963000000
C     0.833000000    -2.360000000    -5.805000000
C    -0.168000000    -3.300000000    -5.540000000
H    -0.871000000    -3.499000000    -6.345000000
C    -0.228000000    -4.007000000    -4.351000000
O    -1.317000000    -4.880000000    -4.164000000
C    -1.541000000    -5.700000000    -3.057000000
C    -0.615000000    -6.723000000    -2.810000000
H     0.207000000    -6.808000000    -3.516000000
C    -0.750000000    -7.551000000    -1.703000000
H    -0.092000000    -8.361000000    -1.402000000
C    -1.811000000    -7.443000000    -0.926000000
H    -1.853000000    -8.003000000     0.006000000
C    -2.749000000    -6.341000000    -1.090000000
C    -2.668000000    -5.573000000    -2.209000000
H    -3.371000000    -4.802000000    -2.514000000
C    -2.157000000    -1.912000000    -1.526000000
H    -2.348000000    -2.449000000    -2.452000000
C    -0.891000000    -1.554000000    -1.150000000
H    -0.032000000    -1.920000000    -1.707000000
C    -0.684000000    -0.687000000    -0.081000000
C     0.710000000    -0.284000000     0.361000000
H     1.006000000     0.714000000     0.030000000
H     0.655000000    -0.075000000     1.431000000
H     1.494000000    -1.010000000     0.134000000
C    -1.778000000    -0.168000000     0.594000000
H    -1.604000000     0.578000000     1.366000000
C    -3.101000000    -0.532000000     0.188000000
H    -3.947000000    -0.253000000     0.810000000
C    -3.317000000    -1.409000000    -0.917000000
C    -4.668000000    -1.928000000    -1.270000000
O    -5.670000000    -1.586000000    -0.750000000
O    -4.718000000    -2.862000000    -2.115000000
O    -2.711000000     2.165000000    -2.271000000
H    -2.540000000     2.147000000    -1.329000000
H    -1.976000000     1.689000000    -2.657000000
O    -7.860000000    -7.448000000    -2.576000000
H    -8.815000000    -7.510000000    -2.563000000
H    -7.681000000    -6.508000000    -2.609000000
O    -0.766000000     0.646000000    -3.326000000
H    -1.451000000     0.262000000    -3.873000000
H     0.016000000     0.633000000    -3.878000000
O   -10.632000000    -3.133000000     0.912000000
H    -9.822000000    -2.639000000     1.041000000
H   -10.343000000    -3.992000000     0.606000000
O   -10.696000000    -1.601000000    -1.601000000
H    -9.748000000    -1.484000000    -1.650000000
H   -10.864000000    -1.828000000    -0.687000000
O    -8.394000000    -0.055000000     2.944000000
H    -9.274000000     0.129000000     2.615000000
H    -8.131000000    -0.854000000     2.489000000
O    -4.081000000    -3.329000000    -4.824000000
H    -4.442000000    -3.011000000    -3.996000000
H    -3.918000000    -4.260000000    -4.672000000
O    -9.073000000     0.146000000    -3.917000000
H    -8.636000000    -0.500000000    -3.361000000
H    -9.626000000    -0.375000000    -4.499000000
O    -5.142000000     2.823000000    -3.745000000
H    -4.262000000     2.561000000    -3.475000000
H    -5.294000000     2.346000000    -4.561000000
O    -6.702000000    -4.722000000    -2.460000000
H    -7.224000000    -4.766000000    -1.659000000
H    -5.861000000    -4.360000000    -2.178000000
O    -7.931000000    -2.310000000     0.904000000
H    -7.082000000    -2.101000000     0.514000000
H    -8.057000000    -3.241000000     0.718000000
O    -7.139000000    -5.320000000    -5.220000000
H    -6.367000000    -5.761000000    -5.575000000
H    -6.854000000    -4.987000000    -4.369000000
O    -5.327000000     0.823000000    -5.705000000
H    -4.583000000     0.442000000    -5.239000000
H    -5.848000000     0.069000000    -5.982000000
O    -8.034000000    -1.582000000    -2.117000000
H    -7.802000000    -2.505000000    -2.218000000
H    -7.225000000    -1.162000000    -1.824000000
O    -6.462000000     2.866000000    -1.413000000
H    -6.215000000     3.733000000    -1.092000000
H    -6.004000000     2.781000000    -2.249000000
O    -8.832000000    -4.897000000    -0.423000000
H    -9.354000000    -5.526000000     0.076000000
H    -9.390000000    -4.656000000    -1.162000000
O    -4.015000000    -3.250000000    -7.620000000
H    -4.158000000    -3.175000000    -6.677000000
H    -4.803000000    -3.685000000    -7.947000000
O    -2.937000000    -0.501000000    -4.881000000
H    -2.922000000    -0.565000000    -5.836000000
H    -3.062000000    -1.402000000    -4.583000000
O    -7.644000000     1.004000000    -0.059000000
H    -6.919000000     0.390000000     0.056000000
H    -7.278000000     1.709000000    -0.593000000
