218
-1467.84184
C    -3.514000000     3.394000000     2.885000000
H    -2.951000000     4.278000000     3.170000000
C    -2.978000000     2.099000000     3.104000000
C    -3.698000000     1.003000000     2.639000000
H    -3.163000000     0.058000000     2.682000000
C    -1.533000000     1.888000000     3.573000000
O    -0.895000000     3.128000000     3.788000000
H    -1.030000000     1.359000000     2.750000000
O    -1.420000000     1.068000000     4.743000000
C    -0.477000000     0.152000000     4.640000000
C    -0.831000000    -1.158000000     4.488000000
H    -1.864000000    -1.474000000     4.610000000
C     0.106000000    -2.139000000     4.218000000
O    -0.258000000    -3.374000000     3.822000000
C     1.486000000    -1.813000000     4.277000000
C     2.627000000    -2.865000000     4.008000000
H     3.460000000    -2.718000000     4.699000000
C     2.994000000    -2.910000000     2.528000000
C     4.031000000    -2.111000000     2.033000000
H     4.528000000    -1.444000000     2.733000000
H     2.354000000    -3.849000000     4.394000000
C     1.879000000    -0.562000000     4.644000000
H     2.914000000    -0.250000000     4.762000000
C     0.897000000     0.440000000     4.792000000
C     1.386000000     1.817000000     5.084000000
H     2.342000000     1.753000000     5.608000000
H     0.648000000     2.222000000     5.779000000
C     1.526000000     2.737000000     3.801000000
C     2.820000000     2.989000000     3.235000000
H     3.651000000     2.359000000     3.542000000
C     0.389000000     3.404000000     3.245000000
C     0.581000000     4.128000000     2.141000000
H    -0.301000000     4.685000000     1.837000000
C     1.784000000     4.258000000     1.482000000
O     1.694000000     4.777000000     0.245000000
C     1.809000000     3.881000000    -0.836000000
C     0.681000000     4.118000000    -1.870000000
C     1.012000000     3.990000000    -3.227000000
H     2.001000000     3.710000000    -3.580000000
C    -0.576000000     4.576000000    -1.537000000
H    -0.773000000     4.776000000    -0.487000000
O     3.107000000     3.756000000    -1.359000000
H     1.604000000     2.910000000    -0.362000000
C     2.918000000     3.654000000     2.032000000
C     4.250000000     3.576000000     1.383000000
H     4.985000000     3.331000000     2.152000000
H     4.501000000     4.588000000     1.058000000
C     4.307000000     2.468000000     0.387000000
C     4.847000000     1.218000000     0.629000000
H     5.181000000     1.066000000     1.652000000
C     3.780000000     2.660000000    -0.882000000
C     3.709000000     1.629000000    -1.790000000
H     3.186000000     1.874000000    -2.711000000
C     4.256000000     0.385000000    -1.507000000
O     4.064000000    -0.618000000    -2.442000000
C     3.161000000    -1.668000000    -2.205000000
C     2.352000000    -2.019000000    -3.437000000
C     2.213000000    -1.071000000    -4.477000000
H     2.656000000    -0.084000000    -4.372000000
C     1.711000000    -3.254000000    -3.507000000
H     1.736000000    -3.882000000    -2.620000000
O     3.720000000    -2.884000000    -1.646000000
H     2.397000000    -1.345000000    -1.483000000
C     4.816000000     0.154000000    -0.277000000
C     5.311000000    -1.216000000     0.131000000
H     6.053000000    -1.172000000     0.931000000
H     5.890000000    -1.699000000    -0.659000000
C     4.309000000    -2.126000000     0.655000000
C     3.570000000    -2.992000000    -0.269000000
C     2.550000000    -3.785000000     0.285000000
H     1.930000000    -4.381000000    -0.380000000
C     2.286000000    -3.750000000     1.667000000
O     1.212000000    -4.412000000     2.187000000
C    -0.015000000    -3.677000000     2.423000000
H     0.049000000    -2.766000000     1.811000000
C    -1.154000000    -4.598000000     1.957000000
C    -2.445000000    -4.452000000     2.533000000
H    -2.666000000    -3.799000000     3.374000000
C    -0.990000000    -5.439000000     0.845000000
H    -0.060000000    -5.416000000     0.283000000
C    -2.040000000    -6.041000000     0.278000000
O    -1.835000000    -6.840000000    -0.804000000
C    -3.276000000    -5.825000000     0.784000000
H    -4.134000000    -6.133000000     0.192000000
C    -3.500000000    -5.065000000     1.908000000
O    -4.800000000    -4.869000000     2.314000000
C    -5.350000000    -3.636000000     2.548000000
C    -5.018000000    -2.485000000     1.747000000
H    -4.423000000    -2.474000000     0.837000000
C    -6.178000000    -3.498000000     3.632000000
H    -6.456000000    -4.319000000     4.288000000
C    -6.697000000    -2.236000000     4.005000000
H    -7.448000000    -2.203000000     4.789000000
C    -6.383000000    -1.143000000     3.271000000
H    -6.749000000    -0.148000000     3.511000000
C    -5.592000000    -1.246000000     2.134000000
O    -5.404000000    -0.080000000     1.351000000
C    -4.861000000     1.047000000     1.938000000
C    -5.317000000     2.351000000     1.621000000
H    -6.200000000     2.399000000     0.989000000
C    -4.774000000     3.463000000     2.234000000
O    -5.234000000     4.682000000     1.836000000
C    -4.496000000     5.496000000     0.942000000
C    -4.078000000     4.883000000    -0.212000000
H    -4.242000000     3.821000000    -0.380000000
C    -4.386000000     6.830000000     1.151000000
H    -4.804000000     7.328000000     2.022000000
C    -3.837000000     7.644000000     0.171000000
H    -3.836000000     8.727000000     0.259000000
C    -3.269000000     7.064000000    -0.964000000
H    -2.789000000     7.791000000    -1.614000000
C    -3.331000000     5.651000000    -1.142000000
O    -2.844000000     5.054000000    -2.251000000
C    -1.506000000     4.822000000    -2.494000000
C    -1.136000000     4.652000000    -3.820000000
H    -1.845000000     4.746000000    -4.638000000
C     0.083000000     4.183000000    -4.195000000
O     0.446000000     4.210000000    -5.522000000
C     1.148000000     3.164000000    -6.116000000
C     0.823000000     1.794000000    -5.911000000
H    -0.010000000     1.556000000    -5.255000000
C     2.140000000     3.494000000    -7.004000000
H     2.363000000     4.520000000    -7.285000000
C     2.870000000     2.514000000    -7.707000000
H     3.666000000     2.810000000    -8.386000000
C     2.570000000     1.171000000    -7.494000000
H     3.176000000     0.379000000    -7.926000000
C     1.523000000     0.822000000    -6.625000000
O     1.126000000    -0.496000000    -6.584000000
C     1.377000000    -1.361000000    -5.524000000
C     0.731000000    -2.639000000    -5.593000000
H     0.223000000    -2.956000000    -6.500000000
C     0.804000000    -3.543000000    -4.527000000
O     0.115000000    -4.706000000    -4.518000000
C     0.193000000    -5.716000000    -3.622000000
C     1.277000000    -6.606000000    -3.568000000
H     2.040000000    -6.449000000    -4.327000000
C     1.303000000    -7.564000000    -2.588000000
H     2.127000000    -8.271000000    -2.529000000
C     0.227000000    -7.635000000    -1.695000000
H     0.230000000    -8.409000000    -0.932000000
C    -0.775000000    -6.765000000    -1.728000000
C    -0.806000000    -5.789000000    -2.649000000
H    -1.590000000    -5.037000000    -2.619000000
C    -2.673000000    -1.758000000    -0.892000000
H    -3.018000000    -2.776000000    -1.053000000
C    -1.321000000    -1.478000000    -0.590000000
H    -0.517000000    -2.201000000    -0.708000000
C    -0.983000000    -0.180000000    -0.132000000
C     0.438000000     0.053000000     0.143000000
H     0.937000000    -0.880000000     0.416000000
H     0.891000000     0.432000000    -0.776000000
H     0.551000000     0.722000000     0.998000000
C    -1.898000000     0.866000000    -0.200000000
H    -1.489000000     1.856000000    -0.019000000
C    -3.140000000     0.601000000    -0.785000000
H    -3.911000000     1.366000000    -0.752000000
C    -3.502000000    -0.702000000    -1.179000000
C    -4.880000000    -0.971000000    -1.836000000
O    -5.488000000    -0.003000000    -2.184000000
O    -5.348000000    -2.113000000    -1.945000000
O    -5.331000000     2.538000000    -2.512000000
H    -5.392000000     1.661000000    -2.132000000
H    -5.769000000     2.462000000    -3.360000000
O    -4.338000000    -3.124000000    -4.388000000
H    -4.805000000    -2.563000000    -3.769000000
H    -5.023000000    -3.472000000    -4.959000000
O    -2.181000000    -1.589000000    -6.026000000
H    -1.833000000    -1.112000000    -5.273000000
H    -2.300000000    -2.484000000    -5.708000000
O    -9.550000000     0.996000000    -1.711000000
H    -8.849000000     0.812000000    -1.085000000
H   -10.275000000     0.438000000    -1.429000000
O    -7.527000000    -3.876000000    -3.973000000
H    -7.808000000    -4.163000000    -4.842000000
H    -7.428000000    -2.928000000    -4.054000000
O    -6.266000000     2.183000000    -4.951000000
H    -7.137000000     1.844000000    -5.158000000
H    -5.972000000     2.598000000    -5.762000000
O    -9.552000000    -0.861000000    -4.352000000
H    -9.810000000    -0.784000000    -3.433000000
H    -8.597000000    -0.800000000    -4.338000000
O    -7.474000000     0.214000000    -0.284000000
H    -6.859000000     0.189000000     0.449000000
H    -6.933000000     0.055000000    -1.057000000
O    -1.626000000     0.232000000    -3.511000000
H    -2.213000000     0.906000000    -3.854000000
H    -1.633000000     0.368000000    -2.564000000
O    -6.347000000    -6.294000000     0.178000000
H    -6.224000000    -5.581000000    -0.449000000
H    -6.088000000    -7.081000000    -0.301000000
O   -10.446000000    -1.920000000    -1.450000000
H    -9.567000000    -2.228000000    -1.230000000
H   -10.863000000    -1.762000000    -0.603000000
O    -5.267000000    -1.152000000    -6.539000000
H    -4.499000000    -1.618000000    -6.210000000
H    -4.911000000    -0.503000000    -7.146000000
O    -4.588000000    -7.372000000    -3.058000000
H    -4.752000000    -6.573000000    -2.556000000
H    -4.380000000    -8.032000000    -2.396000000
O    -5.956000000     5.223000000    -2.685000000
H    -5.514000000     4.407000000    -2.449000000
H    -6.368000000     5.516000000    -1.872000000
O    -3.027000000     2.356000000    -4.557000000
H    -3.857000000     1.959000000    -4.821000000
H    -3.169000000     2.627000000    -3.650000000
O    -8.974000000    -5.123000000    -1.736000000
H    -8.872000000    -4.311000000    -1.240000000
H    -8.489000000    -4.970000000    -2.547000000
O    -7.015000000    -1.021000000    -4.380000000
H    -6.553000000    -0.569000000    -3.674000000
H    -6.444000000    -0.922000000    -5.141000000
O    -7.908000000    -2.489000000    -0.661000000
H    -7.869000000    -1.654000000    -0.195000000
H    -6.993000000    -2.712000000    -0.831000000
O    -5.770000000    -4.767000000    -1.925000000
H    -6.356000000    -4.780000000    -2.682000000
H    -5.468000000    -3.860000000    -1.873000000
