218
-1464.48450
C    -3.167000000     3.614000000     2.512000000
H    -2.365000000     4.090000000     1.953000000
C    -2.738000000     2.540000000     3.367000000
C    -3.679000000     1.706000000     3.916000000
H    -3.437000000     0.805000000     4.473000000
C    -1.279000000     2.222000000     3.542000000
O    -0.472000000     3.324000000     3.682000000
H    -1.034000000     1.627000000     2.649000000
O    -1.076000000     1.298000000     4.654000000
C    -0.180000000     0.328000000     4.527000000
C    -0.692000000    -0.916000000     4.308000000
H    -1.764000000    -1.088000000     4.363000000
C     0.170000000    -1.988000000     4.185000000
O    -0.298000000    -3.201000000     3.732000000
C     1.601000000    -1.782000000     4.214000000
C     2.586000000    -2.947000000     4.016000000
H     3.540000000    -2.738000000     4.504000000
C     2.892000000    -3.136000000     2.524000000
C     3.926000000    -2.390000000     1.968000000
H     4.632000000    -1.867000000     2.608000000
H     2.254000000    -3.900000000     4.434000000
C     2.145000000    -0.507000000     4.503000000
H     3.212000000    -0.301000000     4.530000000
C     1.252000000     0.546000000     4.671000000
C     1.846000000     1.934000000     4.903000000
H     2.848000000     1.903000000     5.336000000
H     1.309000000     2.448000000     5.702000000
C     1.818000000     2.693000000     3.588000000
C     2.996000000     2.719000000     2.826000000
H     3.789000000     2.094000000     3.228000000
C     0.705000000     3.352000000     3.053000000
C     0.850000000     4.004000000     1.854000000
H    -0.005000000     4.535000000     1.445000000
C     1.986000000     3.911000000     1.060000000
O     1.965000000     4.372000000    -0.249000000
C     1.832000000     3.391000000    -1.276000000
C     0.799000000     3.691000000    -2.364000000
C     0.993000000     3.495000000    -3.713000000
H     1.920000000     3.101000000    -4.123000000
C    -0.441000000     4.279000000    -1.975000000
H    -0.696000000     4.204000000    -0.921000000
O     3.117000000     3.147000000    -1.943000000
H     1.424000000     2.442000000    -0.896000000
C     3.094000000     3.283000000     1.584000000
C     4.361000000     3.161000000     0.769000000
H     5.212000000     3.131000000     1.453000000
H     4.469000000     4.084000000     0.195000000
C     4.417000000     1.982000000    -0.207000000
C     4.975000000     0.763000000     0.219000000
H     5.373000000     0.745000000     1.230000000
C     3.964000000     2.100000000    -1.544000000
C     3.969000000     0.977000000    -2.348000000
H     3.443000000     0.976000000    -3.298000000
C     4.544000000    -0.210000000    -1.930000000
O     4.274000000    -1.299000000    -2.746000000
C     3.033000000    -2.011000000    -2.431000000
C     2.172000000    -2.342000000    -3.641000000
C     2.164000000    -1.425000000    -4.717000000
H     2.761000000    -0.519000000    -4.789000000
C     1.429000000    -3.509000000    -3.728000000
H     1.567000000    -4.227000000    -2.923000000
O     3.424000000    -3.139000000    -1.639000000
H     2.377000000    -1.456000000    -1.745000000
C     4.988000000    -0.364000000    -0.600000000
C     5.391000000    -1.641000000     0.052000000
H     6.060000000    -1.421000000     0.886000000
H     5.768000000    -2.366000000    -0.672000000
C     4.205000000    -2.415000000     0.587000000
C     3.351000000    -3.176000000    -0.255000000
C     2.274000000    -3.793000000     0.266000000
H     1.477000000    -4.186000000    -0.361000000
C     2.034000000    -3.852000000     1.636000000
O     0.790000000    -4.310000000     2.008000000
C    -0.206000000    -3.357000000     2.282000000
H     0.061000000    -2.382000000     1.848000000
C    -1.568000000    -3.813000000     1.702000000
C    -2.764000000    -3.339000000     2.271000000
H    -2.795000000    -2.714000000     3.160000000
C    -1.647000000    -4.715000000     0.638000000
H    -0.715000000    -5.139000000     0.274000000
C    -2.870000000    -5.118000000     0.085000000
O    -2.903000000    -6.052000000    -0.928000000
C    -4.087000000    -4.620000000     0.604000000
H    -5.031000000    -5.083000000     0.328000000
C    -4.016000000    -3.809000000     1.763000000
O    -5.239000000    -3.499000000     2.377000000
C    -5.235000000    -2.603000000     3.464000000
C    -5.524000000    -1.238000000     3.336000000
H    -5.627000000    -0.859000000     2.322000000
C    -5.146000000    -3.196000000     4.732000000
H    -5.061000000    -4.258000000     4.947000000
C    -5.288000000    -2.314000000     5.782000000
H    -5.131000000    -2.690000000     6.789000000
C    -5.426000000    -0.921000000     5.641000000
H    -5.567000000    -0.300000000     6.522000000
C    -5.603000000    -0.422000000     4.382000000
O    -5.869000000     0.956000000     4.109000000
C    -4.978000000     1.853000000     3.594000000
C    -5.444000000     2.960000000     2.885000000
H    -6.528000000     3.042000000     2.879000000
C    -4.525000000     3.822000000     2.282000000
O    -5.105000000     4.768000000     1.536000000
C    -4.416000000     5.432000000     0.572000000
C    -3.778000000     4.791000000    -0.479000000
H    -3.870000000     3.707000000    -0.487000000
C    -4.332000000     6.802000000     0.724000000
H    -4.825000000     7.372000000     1.507000000
C    -3.593000000     7.509000000    -0.199000000
H    -3.487000000     8.590000000    -0.151000000
C    -3.000000000     6.891000000    -1.245000000
H    -2.418000000     7.431000000    -1.987000000
C    -3.104000000     5.507000000    -1.426000000
O    -2.695000000     4.825000000    -2.514000000
C    -1.427000000     4.555000000    -2.940000000
C    -1.133000000     4.468000000    -4.284000000
H    -1.855000000     4.740000000    -5.049000000
C     0.077000000     3.975000000    -4.693000000
O     0.420000000     3.764000000    -5.997000000
C     1.230000000     2.791000000    -6.461000000
C     0.793000000     1.492000000    -6.494000000
H    -0.245000000     1.248000000    -6.282000000
C     2.542000000     3.055000000    -6.594000000
H     2.928000000     4.071000000    -6.563000000
C     3.455000000     2.117000000    -7.059000000
H     4.530000000     2.265000000    -7.117000000
C     2.987000000     0.831000000    -7.130000000
H     3.680000000     0.086000000    -7.510000000
C     1.663000000     0.512000000    -6.850000000
O     1.296000000    -0.824000000    -6.882000000
C     1.372000000    -1.676000000    -5.842000000
C     0.605000000    -2.836000000    -5.903000000
H     0.012000000    -3.011000000    -6.797000000
C     0.618000000    -3.747000000    -4.828000000
O    -0.235000000    -4.856000000    -4.883000000
C    -0.524000000    -5.681000000    -3.793000000
C     0.198000000    -6.884000000    -3.598000000
H     0.922000000    -7.113000000    -4.375000000
C    -0.080000000    -7.717000000    -2.522000000
H     0.491000000    -8.629000000    -2.372000000
C    -0.979000000    -7.377000000    -1.580000000
H    -1.082000000    -7.981000000    -0.682000000
C    -1.800000000    -6.287000000    -1.800000000
C    -1.535000000    -5.416000000    -2.837000000
H    -1.963000000    -4.417000000    -2.839000000
C    -2.237000000    -1.695000000    -0.639000000
H    -2.346000000    -2.636000000    -1.172000000
C    -0.887000000    -1.313000000    -0.333000000
H    -0.048000000    -1.990000000    -0.466000000
C    -0.728000000    -0.036000000     0.185000000
C     0.680000000     0.378000000     0.578000000
H     1.342000000     0.478000000    -0.285000000
H     0.631000000     1.272000000     1.203000000
H     1.204000000    -0.382000000     1.161000000
C    -1.779000000     0.853000000     0.313000000
H    -1.612000000     1.862000000     0.682000000
C    -3.125000000     0.417000000     0.100000000
H    -4.025000000     0.985000000     0.322000000
C    -3.318000000    -0.856000000    -0.428000000
C    -4.738000000    -1.362000000    -0.738000000
O    -5.685000000    -0.584000000    -0.667000000
O    -4.907000000    -2.522000000    -1.162000000
O    -4.696000000     2.285000000    -3.607000000
H    -3.980000000     2.004000000    -3.036000000
H    -5.420000000     1.697000000    -3.389000000
O    -7.925000000    -6.077000000    -0.586000000
H    -8.798000000    -6.345000000    -0.874000000
H    -7.950000000    -6.162000000     0.367000000
O    -8.891000000    -1.459000000    -4.334000000
H    -8.118000000    -1.374000000    -4.892000000
H    -8.577000000    -1.927000000    -3.560000000
O    -5.830000000     4.368000000    -4.711000000
H    -5.253000000     3.678000000    -4.383000000
H    -5.967000000     4.944000000    -3.959000000
O    -2.706000000    -0.754000000    -5.329000000
H    -2.674000000    -1.066000000    -6.233000000
H    -3.338000000    -1.330000000    -4.899000000
O    -4.402000000    -4.614000000    -4.769000000
H    -5.033000000    -4.667000000    -5.486000000
H    -4.731000000    -5.228000000    -4.113000000
O   -10.235000000     1.054000000    -2.714000000
H   -10.223000000     0.476000000    -3.477000000
H   -10.444000000     0.477000000    -1.980000000
O    -4.886000000    -1.909000000    -3.999000000
H    -5.241000000    -1.908000000    -3.110000000
H    -4.580000000    -2.806000000    -4.133000000
O   -10.459000000     0.227000000     0.220000000
H    -9.670000000    -0.204000000     0.548000000
H   -11.179000000    -0.227000000     0.658000000
O    -7.712000000    -2.785000000    -2.290000000
H    -8.074000000    -3.632000000    -2.032000000
H    -6.917000000    -2.693000000    -1.764000000
O    -6.944000000     0.674000000    -2.614000000
H    -7.817000000     0.813000000    -2.248000000
H    -6.468000000     0.207000000    -1.927000000
O    -4.071000000     2.111000000    -6.618000000
H    -4.257000000     1.479000000    -5.924000000
H    -3.139000000     2.305000000    -6.521000000
O    -7.491000000    -2.825000000     0.498000000
H    -7.062000000    -2.257000000    -0.142000000
H    -6.771000000    -3.210000000     0.996000000
O    -8.939000000    -1.296000000     2.549000000
H    -8.425000000    -2.034000000     2.223000000
H    -8.606000000    -0.540000000     2.065000000
O    -7.069000000     1.801000000    -5.690000000
H    -7.026000000     1.485000000    -4.788000000
H    -6.480000000     2.555000000    -5.709000000
O    -6.760000000    -1.588000000    -5.949000000
H    -6.312000000    -2.182000000    -6.552000000
H    -6.149000000    -1.481000000    -5.220000000
O    -5.740000000    -5.631000000    -2.583000000
H    -4.994000000    -5.161000000    -2.211000000
H    -6.428000000    -5.548000000    -1.923000000
O    -7.554000000     0.780000000     0.817000000
H    -6.802000000     0.413000000     0.351000000
H    -7.331000000     1.701000000     0.944000000
O    -5.106000000    -7.875000000    -1.352000000
H    -5.354000000    -7.065000000    -1.798000000
H    -5.938000000    -8.308000000    -1.161000000
