218
-1471.11691
C    -1.835000000    -1.918000000    -4.872000000
H    -2.296000000    -1.108000000    -5.432000000
C    -2.085000000    -2.215000000    -3.542000000
C    -1.377000000    -3.184000000    -2.861000000
H    -1.637000000    -3.387000000    -1.825000000
C    -3.012000000    -1.355000000    -2.757000000
O    -3.814000000    -0.439000000    -3.586000000
H    -2.375000000    -0.760000000    -2.086000000
O    -3.819000000    -2.099000000    -1.881000000
C    -3.949000000    -1.720000000    -0.528000000
C    -3.446000000    -2.546000000     0.461000000
H    -3.129000000    -3.543000000     0.164000000
C    -3.632000000    -2.250000000     1.826000000
O    -3.046000000    -3.061000000     2.722000000
C    -4.339000000    -1.115000000     2.170000000
C    -4.326000000    -0.579000000     3.575000000
H    -5.209000000     0.039000000     3.754000000
C    -3.147000000     0.254000000     3.921000000
C    -3.131000000     1.646000000     3.701000000
H    -4.036000000     2.117000000     3.325000000
H    -4.360000000    -1.453000000     4.229000000
C    -4.880000000    -0.316000000     1.163000000
H    -5.463000000     0.541000000     1.490000000
C    -4.749000000    -0.646000000    -0.190000000
C    -5.443000000     0.163000000    -1.220000000
H    -6.240000000     0.697000000    -0.699000000
H    -6.044000000    -0.404000000    -1.935000000
C    -4.542000000     1.209000000    -1.886000000
C    -4.412000000     2.462000000    -1.299000000
H    -4.999000000     2.636000000    -0.401000000
C    -3.828000000     0.882000000    -3.034000000
C    -2.828000000     1.733000000    -3.482000000
H    -2.232000000     1.578000000    -4.378000000
C    -2.573000000     2.946000000    -2.833000000
O    -1.478000000     3.661000000    -3.256000000
C    -0.274000000     3.296000000    -2.521000000
C     1.023000000     3.041000000    -3.263000000
C     2.227000000     3.045000000    -2.579000000
H     2.170000000     3.370000000    -1.543000000
C     0.959000000     2.564000000    -4.569000000
H    -0.031000000     2.527000000    -5.017000000
O    -0.098000000     4.352000000    -1.617000000
H    -0.388000000     2.358000000    -1.958000000
C    -3.384000000     3.314000000    -1.753000000
C    -3.080000000     4.574000000    -1.068000000
H    -3.957000000     4.988000000    -0.566000000
H    -2.843000000     5.340000000    -1.809000000
C    -1.975000000     4.471000000    -0.085000000
C    -2.336000000     4.493000000     1.224000000
H    -3.365000000     4.551000000     1.570000000
C    -0.599000000     4.396000000    -0.367000000
C     0.341000000     4.391000000     0.630000000
H     1.399000000     4.247000000     0.426000000
C     0.001000000     4.061000000     1.941000000
O     0.920000000     3.881000000     2.988000000
C     1.170000000     2.498000000     3.242000000
C     2.663000000     2.322000000     3.462000000
C     3.549000000     3.081000000     2.667000000
H     3.174000000     3.736000000     1.885000000
C     3.160000000     1.249000000     4.242000000
H     2.470000000     0.496000000     4.616000000
O     0.415000000     2.172000000     4.446000000
H     0.894000000     1.822000000     2.419000000
C    -1.384000000     4.122000000     2.242000000
C    -1.845000000     3.837000000     3.675000000
H    -2.813000000     4.319000000     3.830000000
H    -1.135000000     4.368000000     4.313000000
C    -1.969000000     2.333000000     3.969000000
C    -0.801000000     1.613000000     4.325000000
C    -0.822000000     0.242000000     4.502000000
H     0.110000000    -0.175000000     4.875000000
C    -1.973000000    -0.486000000     4.300000000
O    -1.954000000    -1.838000000     4.449000000
C    -1.725000000    -2.614000000     3.250000000
H    -1.294000000    -1.957000000     2.481000000
C    -0.632000000    -3.674000000     3.297000000
C    -0.660000000    -4.740000000     2.405000000
H    -1.544000000    -4.830000000     1.780000000
C     0.522000000    -3.528000000     4.093000000
H     0.619000000    -2.582000000     4.619000000
C     1.519000000    -4.515000000     4.076000000
O     2.563000000    -4.444000000     4.934000000
C     1.472000000    -5.582000000     3.197000000
H     2.306000000    -6.272000000     3.105000000
C     0.385000000    -5.669000000     2.357000000
O     0.436000000    -6.753000000     1.531000000
C    -0.121000000    -6.609000000     0.263000000
C     0.485000000    -5.790000000    -0.689000000
H     1.305000000    -5.142000000    -0.393000000
C    -1.239000000    -7.407000000    -0.040000000
H    -1.705000000    -8.003000000     0.741000000
C    -1.855000000    -7.294000000    -1.274000000
H    -2.760000000    -7.851000000    -1.502000000
C    -1.200000000    -6.551000000    -2.265000000
H    -1.602000000    -6.650000000    -3.271000000
C    -0.062000000    -5.819000000    -1.993000000
O     0.403000000    -4.892000000    -2.949000000
C    -0.359000000    -3.885000000    -3.555000000
C    -0.116000000    -3.666000000    -4.862000000
H     0.751000000    -4.168000000    -5.284000000
C    -0.820000000    -2.649000000    -5.538000000
O    -0.523000000    -2.310000000    -6.823000000
C    -0.021000000    -1.142000000    -7.338000000
C     0.772000000    -0.290000000    -6.615000000
H     1.026000000    -0.526000000    -5.585000000
C    -0.392000000    -0.861000000    -8.639000000
H    -0.961000000    -1.523000000    -9.287000000
C     0.172000000     0.270000000    -9.222000000
H    -0.013000000     0.496000000   -10.269000000
C     1.046000000     1.092000000    -8.563000000
H     1.586000000     1.894000000    -9.059000000
C     1.342000000     0.858000000    -7.235000000
O     2.229000000     1.668000000    -6.541000000
C     2.122000000     2.022000000    -5.190000000
C     3.286000000     1.960000000    -4.387000000
H     4.260000000     1.640000000    -4.749000000
C     3.314000000     2.378000000    -3.103000000
O     4.503000000     2.281000000    -2.463000000
C     4.930000000     3.182000000    -1.506000000
C     5.210000000     2.798000000    -0.225000000
H     5.175000000     1.797000000     0.196000000
C     4.956000000     4.539000000    -1.883000000
H     4.713000000     4.911000000    -2.875000000
C     5.382000000     5.472000000    -0.931000000
H     5.469000000     6.525000000    -1.186000000
C     5.830000000     5.023000000     0.349000000
H     6.285000000     5.731000000     1.037000000
C     5.623000000     3.699000000     0.758000000
O     5.892000000     3.387000000     2.078000000
C     4.961000000     2.780000000     2.852000000
C     5.371000000     1.707000000     3.663000000
H     6.424000000     1.503000000     3.834000000
C     4.487000000     0.905000000     4.286000000
O     4.934000000    -0.276000000     4.930000000
C     4.156000000    -1.186000000     5.672000000
C     3.818000000    -1.004000000     7.002000000
H     4.228000000    -0.126000000     7.493000000
C     3.131000000    -2.009000000     7.630000000
H     2.887000000    -1.911000000     8.684000000
C     2.668000000    -3.115000000     6.926000000
H     2.159000000    -3.993000000     7.317000000
C     2.915000000    -3.267000000     5.570000000
C     3.737000000    -2.363000000     4.956000000
H     3.931000000    -2.544000000     3.902000000
C     2.891000000    -2.821000000     0.997000000
H     3.016000000    -3.898000000     1.082000000
C     1.635000000    -2.253000000     0.770000000
H     0.776000000    -2.873000000     0.527000000
C     1.423000000    -0.862000000     0.726000000
C     0.143000000    -0.255000000     0.262000000
H    -0.497000000    -1.010000000    -0.200000000
H    -0.282000000     0.133000000     1.190000000
H     0.246000000     0.563000000    -0.453000000
C     2.571000000    -0.097000000     0.924000000
H     2.395000000     0.973000000     0.856000000
C     3.839000000    -0.589000000     1.170000000
H     4.725000000     0.019000000     1.332000000
C     4.022000000    -1.978000000     1.272000000
C     5.445000000    -2.593000000     1.399000000
O     6.403000000    -1.894000000     1.055000000
O     5.583000000    -3.804000000     1.599000000
O     8.245000000    -1.033000000     5.614000000
H     8.105000000    -1.902000000     5.988000000
H     7.747000000    -1.041000000     4.796000000
O     6.777000000    -3.720000000     6.488000000
H     6.288000000    -3.580000000     5.676000000
H     6.121000000    -4.030000000     7.112000000
O    10.393000000    -2.355000000    -1.235000000
H    10.551000000    -1.425000000    -1.399000000
H    10.156000000    -2.398000000    -0.309000000
O     4.329000000    -6.890000000    -2.712000000
H     3.671000000    -7.576000000    -2.601000000
H     4.324000000    -6.416000000    -1.880000000
O    10.142000000    -4.104000000     4.900000000
H    10.408000000    -3.389000000     5.478000000
H     9.558000000    -3.692000000     4.263000000
O     6.087000000    -5.397000000     4.059000000
H     5.358000000    -5.850000000     4.482000000
H     5.680000000    -4.898000000     3.350000000
O     3.895000000    -0.852000000    -2.270000000
H     3.871000000    -1.793000000    -2.092000000
H     3.423000000    -0.457000000    -1.538000000
O     9.577000000    -5.372000000    -1.659000000
H    10.201000000    -4.664000000    -1.498000000
H     8.889000000    -5.238000000    -1.007000000
O     8.711000000     0.509000000    -2.131000000
H     8.390000000     0.506000000    -1.229000000
H     7.933000000     0.681000000    -2.661000000
O     6.277000000     0.219000000    -3.244000000
H     6.282000000    -0.661000000    -3.620000000
H     5.582000000     0.195000000    -2.587000000
O    10.806000000    -1.530000000     1.465000000
H    10.640000000    -0.616000000     1.698000000
H    11.474000000    -1.818000000     2.087000000
O     4.369000000    -5.564000000    -0.404000000
H     3.926000000    -6.177000000     0.182000000
H     4.929000000    -5.044000000     0.173000000
O     3.198000000    -7.554000000     0.827000000
H     2.367000000    -7.937000000     1.107000000
H     3.682000000    -8.286000000     0.445000000
O     8.383000000    -6.103000000     3.033000000
H     8.702000000    -5.486000000     3.692000000
H     7.451000000    -6.199000000     3.225000000
O     4.366000000    -3.607000000    -2.180000000
H     5.282000000    -3.362000000    -2.048000000
H     4.227000000    -4.343000000    -1.583000000
O     7.630000000    -4.991000000     0.596000000
H     6.877000000    -4.519000000     0.951000000
H     8.144000000    -5.235000000     1.366000000
O     6.930000000    -3.303000000    -1.492000000
H     7.337000000    -4.091000000    -1.132000000
H     6.729000000    -2.767000000    -0.725000000
O     8.348000000    -2.935000000     2.836000000
H     7.653000000    -2.668000000     2.235000000
H     9.119000000    -2.450000000     2.541000000
O     7.718000000     0.450000000     0.392000000
H     7.788000000     0.994000000     1.176000000
H     7.323000000    -0.365000000     0.701000000
