218
-1468.76142
C    -3.615000000     1.946000000     2.527000000
H    -3.220000000     2.907000000     2.208000000
C    -2.856000000     1.138000000     3.396000000
C    -3.394000000    -0.091000000     3.696000000
H    -2.765000000    -0.777000000     4.257000000
C    -1.390000000     1.374000000     3.674000000
O    -1.104000000     2.776000000     3.731000000
H    -0.771000000     0.992000000     2.849000000
O    -0.904000000     0.768000000     4.852000000
C     0.381000000     0.201000000     4.712000000
C     0.371000000    -1.155000000     4.462000000
H    -0.518000000    -1.768000000     4.590000000
C     1.537000000    -1.755000000     4.071000000
O     1.527000000    -3.072000000     3.746000000
C     2.668000000    -0.903000000     3.923000000
C     3.964000000    -1.629000000     3.527000000
H     4.860000000    -1.089000000     3.840000000
C     4.019000000    -1.717000000     1.980000000
C     4.648000000    -0.709000000     1.235000000
H     4.988000000     0.198000000     1.728000000
H     4.015000000    -2.652000000     3.906000000
C     2.727000000     0.439000000     4.173000000
H     3.620000000     1.001000000     3.913000000
C     1.509000000     1.027000000     4.514000000
C     1.546000000     2.566000000     4.645000000
H     2.541000000     2.937000000     4.902000000
H     0.792000000     2.916000000     5.352000000
C     1.144000000     3.035000000     3.247000000
C     2.171000000     3.547000000     2.422000000
H     3.205000000     3.517000000     2.755000000
C    -0.197000000     3.278000000     2.943000000
C    -0.473000000     3.935000000     1.728000000
H    -1.518000000     4.054000000     1.452000000
C     0.504000000     4.434000000     0.929000000
O     0.094000000     4.999000000    -0.262000000
C     0.123000000     4.138000000    -1.442000000
C    -1.069000000     4.376000000    -2.375000000
C    -0.948000000     4.031000000    -3.722000000
H    -0.017000000     3.742000000    -4.202000000
C    -2.261000000     4.775000000    -1.846000000
H    -2.379000000     5.145000000    -0.831000000
O     1.388000000     4.372000000    -2.134000000
H     0.174000000     3.094000000    -1.101000000
C     1.845000000     4.279000000     1.276000000
C     2.978000000     4.799000000     0.369000000
H     3.795000000     5.079000000     1.037000000
H     2.690000000     5.759000000    -0.066000000
C     3.239000000     3.755000000    -0.650000000
C     4.131000000     2.718000000    -0.346000000
H     4.772000000     2.818000000     0.526000000
C     2.516000000     3.612000000    -1.844000000
C     2.612000000     2.469000000    -2.676000000
H     2.013000000     2.369000000    -3.578000000
C     3.513000000     1.451000000    -2.383000000
O     3.639000000     0.371000000    -3.178000000
C     3.025000000    -0.869000000    -2.679000000
C     2.163000000    -1.504000000    -3.687000000
C     1.422000000    -0.757000000    -4.513000000
H     1.450000000     0.317000000    -4.347000000
C     2.092000000    -2.874000000    -3.777000000
H     2.705000000    -3.593000000    -3.240000000
O     4.025000000    -1.795000000    -2.240000000
H     2.400000000    -0.650000000    -1.801000000
C     4.250000000     1.607000000    -1.192000000
C     5.252000000     0.491000000    -0.831000000
H     6.011000000     0.979000000    -0.215000000
H     5.818000000     0.243000000    -1.731000000
C     4.621000000    -0.713000000    -0.175000000
C     4.154000000    -1.798000000    -0.865000000
C     3.622000000    -2.879000000    -0.080000000
H     3.356000000    -3.809000000    -0.574000000
C     3.516000000    -2.807000000     1.306000000
O     2.878000000    -3.899000000     1.891000000
C     1.555000000    -3.501000000     2.356000000
H     1.071000000    -2.651000000     1.853000000
C     0.549000000    -4.589000000     2.114000000
C    -0.449000000    -4.944000000     2.981000000
H    -0.650000000    -4.375000000     3.885000000
C     0.508000000    -5.196000000     0.877000000
H     1.243000000    -4.922000000     0.124000000
C    -0.376000000    -6.266000000     0.580000000
O    -0.428000000    -6.905000000    -0.630000000
C    -1.372000000    -6.539000000     1.456000000
H    -2.067000000    -7.331000000     1.187000000
C    -1.477000000    -5.863000000     2.644000000
O    -2.580000000    -6.104000000     3.453000000
C    -3.291000000    -5.023000000     4.112000000
C    -3.814000000    -3.898000000     3.463000000
H    -3.797000000    -3.790000000     2.382000000
C    -3.366000000    -5.067000000     5.513000000
H    -2.869000000    -5.919000000     5.969000000
C    -3.759000000    -3.990000000     6.247000000
H    -3.596000000    -4.058000000     7.319000000
C    -4.348000000    -2.944000000     5.564000000
H    -4.788000000    -2.128000000     6.133000000
C    -4.385000000    -2.905000000     4.196000000
O    -5.039000000    -1.891000000     3.488000000
C    -4.621000000    -0.564000000     3.221000000
C    -5.375000000     0.303000000     2.415000000
H    -6.332000000    -0.030000000     2.021000000
C    -4.887000000     1.558000000     2.085000000
O    -5.609000000     2.391000000     1.240000000
C    -5.368000000     3.704000000     0.905000000
C    -5.112000000     3.981000000    -0.439000000
H    -5.176000000     3.194000000    -1.185000000
C    -5.365000000     4.699000000     1.860000000
H    -5.593000000     4.426000000     2.887000000
C    -5.081000000     6.021000000     1.453000000
H    -5.041000000     6.909000000     2.078000000
C    -4.803000000     6.297000000     0.084000000
H    -4.653000000     7.307000000    -0.287000000
C    -4.842000000     5.267000000    -0.845000000
O    -4.505000000     5.531000000    -2.130000000
C    -3.339000000     5.055000000    -2.665000000
C    -3.268000000     4.692000000    -3.998000000
H    -4.068000000     4.859000000    -4.714000000
C    -2.065000000     4.283000000    -4.521000000
O    -2.060000000     3.956000000    -5.871000000
C    -1.205000000     3.071000000    -6.458000000
C    -1.210000000     1.744000000    -6.131000000
H    -2.047000000     1.302000000    -5.596000000
C    -0.111000000     3.561000000    -7.240000000
H    -0.185000000     4.593000000    -7.574000000
C     0.907000000     2.694000000    -7.634000000
H     1.779000000     3.146000000    -8.100000000
C     0.847000000     1.356000000    -7.283000000
H     1.708000000     0.777000000    -7.607000000
C    -0.191000000     0.809000000    -6.522000000
O    -0.306000000    -0.508000000    -6.309000000
C     0.424000000    -1.282000000    -5.375000000
C     0.268000000    -2.694000000    -5.417000000
H    -0.434000000    -3.149000000    -6.111000000
C     1.086000000    -3.450000000    -4.628000000
O     0.911000000    -4.836000000    -4.692000000
C     1.129000000    -5.679000000    -3.679000000
C     2.362000000    -6.315000000    -3.669000000
H     3.138000000    -6.128000000    -4.407000000
C     2.721000000    -7.050000000    -2.550000000
H     3.737000000    -7.419000000    -2.442000000
C     1.831000000    -7.195000000    -1.519000000
H     2.103000000    -7.709000000    -0.601000000
C     0.527000000    -6.725000000    -1.628000000
C     0.152000000    -5.935000000    -2.694000000
H    -0.856000000    -5.531000000    -2.657000000
C    -1.686000000    -2.494000000    -0.922000000
H    -1.650000000    -3.506000000    -1.317000000
C    -0.486000000    -1.926000000    -0.495000000
H     0.422000000    -2.514000000    -0.604000000
C    -0.477000000    -0.613000000     0.066000000
C     0.812000000     0.073000000     0.352000000
H     1.007000000     0.679000000    -0.535000000
H     0.759000000     0.750000000     1.207000000
H     1.715000000    -0.528000000     0.484000000
C    -1.717000000     0.057000000     0.181000000
H    -1.788000000     1.034000000     0.653000000
C    -2.888000000    -0.569000000    -0.213000000
H    -3.866000000    -0.132000000    -0.028000000
C    -2.915000000    -1.886000000    -0.787000000
C    -4.285000000    -2.430000000    -1.124000000
O    -5.255000000    -1.736000000    -1.130000000
O    -4.420000000    -3.633000000    -1.276000000
O    -8.860000000    -2.801000000    -0.854000000
H    -8.665000000    -1.909000000    -1.143000000
H    -9.788000000    -2.778000000    -0.618000000
O    -7.557000000    -6.840000000    -0.009000000
H    -7.305000000    -6.290000000     0.733000000
H    -7.107000000    -6.451000000    -0.759000000
O    -6.451000000    -4.159000000    -5.551000000
H    -6.419000000    -3.759000000    -4.682000000
H    -5.699000000    -3.789000000    -6.014000000
O    -4.652000000    -0.485000000    -5.677000000
H    -4.139000000    -0.864000000    -4.963000000
H    -4.770000000    -1.206000000    -6.295000000
O    -6.739000000    -4.862000000    -1.648000000
H    -7.416000000    -4.483000000    -1.089000000
H    -5.960000000    -4.334000000    -1.472000000
O    -4.527000000    -7.587000000    -0.734000000
H    -3.713000000    -8.087000000    -0.788000000
H    -5.218000000    -8.240000000    -0.846000000
O    -6.506000000    -5.612000000     3.300000000
H    -6.024000000    -5.308000000     2.531000000
H    -7.239000000    -5.002000000     3.380000000
O    -5.184000000    -5.212000000     0.854000000
H    -4.823000000    -4.422000000     0.454000000
H    -4.641000000    -5.923000000     0.513000000
O    -3.227000000    -5.743000000    -2.096000000
H    -3.661000000    -4.970000000    -1.735000000
H    -3.796000000    -6.473000000    -1.851000000
O    -2.780000000    -8.326000000    -3.505000000
H    -2.674000000    -7.500000000    -3.032000000
H    -2.725000000    -8.999000000    -2.826000000
O    -9.073000000     0.163000000    -1.010000000
H    -8.484000000     0.361000000    -1.738000000
H    -8.866000000     0.824000000    -0.349000000
O    -6.882000000    -2.537000000     1.082000000
H    -7.764000000    -2.375000000     0.747000000
H    -6.312000000    -2.426000000     0.321000000
O    -2.504000000    -1.778000000    -4.174000000
H    -2.392000000    -1.617000000    -3.237000000
H    -1.612000000    -1.811000000    -4.520000000
O    -8.626000000    -3.766000000     2.618000000
H    -8.801000000    -3.323000000     3.448000000
H    -7.964000000    -3.223000000     2.191000000
O    -7.848000000     2.102000000    -3.797000000
H    -7.113000000     1.696000000    -3.339000000
H    -8.235000000     2.694000000    -3.152000000
O    -6.352000000    -6.647000000    -3.600000000
H    -6.454000000    -6.448000000    -4.531000000
H    -6.640000000    -5.852000000    -3.153000000
O    -6.037000000     0.693000000    -1.167000000
H    -5.916000000     0.733000000    -0.219000000
H    -5.656000000    -0.148000000    -1.422000000
O    -5.895000000    -2.518000000    -3.648000000
H    -6.165000000    -1.621000000    -3.846000000
H    -5.711000000    -2.511000000    -2.709000000
O    -3.413000000    -4.294000000    -4.801000000
H    -3.298000000    -3.413000000    -4.445000000
H    -3.676000000    -4.824000000    -4.048000000
