218
-1475.70741
C    -3.277000000     2.433000000     2.305000000
H    -2.828000000     3.207000000     1.688000000
C    -2.528000000     1.747000000     3.302000000
C    -3.092000000     0.753000000     4.097000000
H    -2.465000000     0.358000000     4.892000000
C    -1.013000000     2.003000000     3.427000000
O    -0.776000000     3.375000000     3.427000000
H    -0.529000000     1.633000000     2.510000000
O    -0.464000000     1.499000000     4.635000000
C     0.680000000     0.826000000     4.509000000
C     0.637000000    -0.522000000     4.496000000
H    -0.305000000    -1.058000000     4.429000000
C     1.693000000    -1.239000000     4.053000000
O     1.571000000    -2.619000000     3.894000000
C     2.941000000    -0.614000000     3.835000000
C     4.119000000    -1.425000000     3.341000000
H     5.083000000    -1.004000000     3.634000000
C     4.103000000    -1.702000000     1.868000000
C     4.686000000    -0.787000000     0.999000000
H     5.132000000     0.110000000     1.420000000
H     4.059000000    -2.310000000     3.978000000
C     3.034000000     0.773000000     3.987000000
H     3.963000000     1.312000000     3.826000000
C     1.886000000     1.504000000     4.304000000
C     1.940000000     3.040000000     4.282000000
H     2.910000000     3.481000000     4.524000000
H     1.182000000     3.253000000     5.039000000
C     1.511000000     3.536000000     2.865000000
C     2.469000000     3.675000000     1.895000000
H     3.470000000     3.381000000     2.200000000
C     0.152000000     3.769000000     2.579000000
C    -0.180000000     4.200000000     1.288000000
H    -1.220000000     4.394000000     1.040000000
C     0.755000000     4.460000000     0.352000000
O     0.496000000     4.871000000    -0.968000000
C     0.444000000     3.831000000    -2.086000000
C    -0.785000000     3.930000000    -2.922000000
C    -0.746000000     3.524000000    -4.196000000
H     0.169000000     3.177000000    -4.668000000
C    -1.965000000     4.449000000    -2.386000000
H    -2.012000000     4.753000000    -1.343000000
O     1.642000000     3.907000000    -2.802000000
H     0.464000000     2.822000000    -1.647000000
C     2.127000000     4.196000000     0.625000000
C     3.255000000     4.335000000    -0.356000000
H     4.150000000     4.515000000     0.243000000
H     3.037000000     5.240000000    -0.927000000
C     3.309000000     3.147000000    -1.323000000
C     4.181000000     2.173000000    -0.927000000
H     4.560000000     2.263000000     0.088000000
C     2.604000000     3.048000000    -2.561000000
C     2.764000000     1.899000000    -3.286000000
H     2.310000000     1.810000000    -4.270000000
C     3.649000000     0.910000000    -2.854000000
O     3.630000000    -0.284000000    -3.512000000
C     2.993000000    -1.396000000    -2.839000000
C     1.980000000    -2.131000000    -3.703000000
C     1.216000000    -1.407000000    -4.606000000
H     1.464000000    -0.373000000    -4.833000000
C     1.601000000    -3.465000000    -3.435000000
H     2.171000000    -4.089000000    -2.752000000
O     3.854000000    -2.348000000    -2.174000000
H     2.364000000    -0.889000000    -2.093000000
C     4.417000000     1.030000000    -1.723000000
C     5.455000000     0.010000000    -1.221000000
H     6.228000000     0.510000000    -0.635000000
H     5.941000000    -0.559000000    -2.017000000
C     4.692000000    -0.937000000    -0.376000000
C     4.031000000    -2.107000000    -0.831000000
C     3.430000000    -3.034000000    -0.007000000
H     3.012000000    -3.929000000    -0.461000000
C     3.376000000    -2.772000000     1.349000000
O     2.509000000    -3.556000000     2.103000000
C     1.265000000    -2.978000000     2.572000000
H     0.927000000    -2.176000000     1.899000000
C     0.145000000    -4.020000000     2.516000000
C    -0.900000000    -4.022000000     3.437000000
H    -0.993000000    -3.335000000     4.274000000
C     0.176000000    -4.923000000     1.430000000
H     0.972000000    -4.931000000     0.690000000
C    -0.921000000    -5.782000000     1.328000000
O    -0.820000000    -6.862000000     0.500000000
C    -1.941000000    -5.823000000     2.227000000
H    -2.641000000    -6.655000000     2.240000000
C    -1.932000000    -4.885000000     3.279000000
O    -3.092000000    -4.833000000     4.012000000
C    -3.358000000    -3.762000000     4.845000000
C    -4.041000000    -2.704000000     4.306000000
H    -4.271000000    -2.642000000     3.246000000
C    -2.966000000    -3.745000000     6.170000000
H    -2.622000000    -4.658000000     6.650000000
C    -3.429000000    -2.808000000     7.119000000
H    -3.286000000    -2.978000000     8.183000000
C    -4.118000000    -1.695000000     6.637000000
H    -4.519000000    -0.939000000     7.308000000
C    -4.336000000    -1.652000000     5.215000000
O    -5.018000000    -0.538000000     4.712000000
C    -4.402000000     0.367000000     3.878000000
C    -5.169000000     1.099000000     2.944000000
H    -6.226000000     0.846000000     2.963000000
C    -4.605000000     2.101000000     2.135000000
O    -5.301000000     2.591000000     1.121000000
C    -5.290000000     3.853000000     0.623000000
C    -4.991000000     3.938000000    -0.743000000
H    -4.965000000     3.011000000    -1.311000000
C    -5.421000000     5.043000000     1.390000000
H    -5.606000000     5.028000000     2.461000000
C    -5.259000000     6.301000000     0.771000000
H    -5.420000000     7.218000000     1.331000000
C    -4.799000000     6.321000000    -0.538000000
H    -4.611000000     7.295000000    -0.983000000
C    -4.550000000     5.149000000    -1.300000000
O    -4.261000000     5.273000000    -2.659000000
C    -3.150000000     4.609000000    -3.125000000
C    -3.077000000     4.252000000    -4.497000000
H    -3.976000000     4.363000000    -5.097000000
C    -1.957000000     3.640000000    -4.985000000
O    -1.930000000     3.248000000    -6.360000000
C    -1.122000000     2.175000000    -6.754000000
C    -1.352000000     0.871000000    -6.358000000
H    -2.222000000     0.607000000    -5.762000000
C     0.014000000     2.500000000    -7.371000000
H     0.187000000     3.476000000    -7.819000000
C     0.941000000     1.518000000    -7.769000000
H     1.768000000     1.843000000    -8.394000000
C     0.724000000     0.223000000    -7.311000000
H     1.465000000    -0.511000000    -7.617000000
C    -0.448000000    -0.112000000    -6.606000000
O    -0.686000000    -1.418000000    -6.189000000
C     0.140000000    -2.058000000    -5.282000000
C    -0.189000000    -3.368000000    -4.988000000
H    -0.922000000    -3.878000000    -5.607000000
C     0.529000000    -4.065000000    -4.063000000
O     0.320000000    -5.401000000    -4.006000000
C     0.485000000    -6.261000000    -2.910000000
C     1.601000000    -7.041000000    -2.829000000
H     2.275000000    -7.071000000    -3.682000000
C     1.905000000    -7.808000000    -1.759000000
H     2.834000000    -8.361000000    -1.649000000
C     1.064000000    -7.757000000    -0.653000000
H     1.349000000    -8.441000000     0.142000000
C    -0.035000000    -6.931000000    -0.649000000
C    -0.259000000    -6.119000000    -1.748000000
H    -1.032000000    -5.357000000    -1.802000000
C    -1.490000000    -2.356000000    -0.391000000
H    -1.599000000    -3.428000000    -0.533000000
C    -0.242000000    -1.681000000    -0.430000000
H     0.624000000    -2.335000000    -0.491000000
C    -0.162000000    -0.332000000    -0.128000000
C     1.112000000     0.486000000    -0.026000000
H     1.339000000     0.847000000    -1.032000000
H     1.178000000     1.319000000     0.677000000
H     1.917000000    -0.217000000     0.196000000
C    -1.408000000     0.360000000    -0.028000000
H    -1.464000000     1.424000000     0.186000000
C    -2.663000000    -0.282000000    -0.041000000
H    -3.627000000     0.199000000     0.101000000
C    -2.670000000    -1.647000000    -0.119000000
C    -3.969000000    -2.438000000    -0.101000000
O    -5.027000000    -1.828000000    -0.110000000
O    -4.053000000    -3.594000000    -0.409000000
O    -7.343000000    -1.472000000    -3.415000000
H    -7.165000000    -0.563000000    -3.171000000
H    -8.221000000    -1.643000000    -3.072000000
O    -4.228000000    -2.759000000    -5.154000000
H    -4.026000000    -2.786000000    -6.089000000
H    -4.508000000    -1.858000000    -4.995000000
O    -4.127000000    -0.266000000    -4.218000000
H    -3.249000000    -0.522000000    -3.936000000
H    -4.656000000    -0.312000000    -3.422000000
O    -5.503000000    -6.334000000     4.354000000
H    -6.053000000    -5.761000000     4.889000000
H    -4.894000000    -5.741000000     3.916000000
O    -6.262000000    -4.765000000     0.773000000
H    -6.712000000    -5.018000000    -0.033000000
H    -5.424000000    -4.408000000     0.477000000
O    -7.810000000    -4.721000000     3.037000000
H    -7.928000000    -3.854000000     3.426000000
H    -7.199000000    -4.579000000     2.315000000
O    -3.833000000    -6.429000000    -0.504000000
H    -4.026000000    -5.508000000    -0.324000000
H    -3.671000000    -6.812000000     0.358000000
O    -5.402000000    -6.353000000    -2.930000000
H    -5.380000000    -5.410000000    -2.765000000
H    -4.586000000    -6.681000000    -2.553000000
O    -7.097000000    -0.959000000     1.406000000
H    -7.199000000    -0.225000000     0.800000000
H    -6.315000000    -1.417000000     1.097000000
O    -5.224000000    -7.288000000     1.769000000
H    -5.589000000    -6.825000000     1.014000000
H    -5.746000000    -6.984000000     2.511000000
O    -7.672000000     1.179000000    -0.245000000
H    -8.628000000     1.190000000    -0.291000000
H    -7.441000000     2.022000000     0.144000000
O    -1.716000000     0.101000000    -3.119000000
H    -1.418000000    -0.727000000    -2.743000000
H    -2.184000000     0.534000000    -2.405000000
O    -7.967000000    -2.081000000     4.008000000
H    -7.646000000    -1.502000000     4.700000000
H    -7.703000000    -1.651000000     3.194000000
O    -7.793000000    -5.795000000    -1.399000000
H    -8.106000000    -4.980000000    -1.790000000
H    -7.028000000    -6.034000000    -1.923000000
O    -2.630000000    -7.612000000    -3.655000000
H    -2.672000000    -6.656000000    -3.643000000
H    -2.173000000    -7.843000000    -2.847000000
O    -5.560000000     0.127000000    -1.796000000
H    -6.230000000     0.525000000    -1.239000000
H    -5.343000000    -0.696000000    -1.358000000
O    -8.884000000    -2.890000000     1.077000000
H    -8.256000000    -3.416000000     0.581000000
H    -8.439000000    -2.053000000     1.213000000
O    -5.959000000    -3.584000000    -2.583000000
H    -6.405000000    -2.851000000    -3.008000000
H    -5.363000000    -3.171000000    -1.957000000
O    -3.137000000    -4.617000000    -3.249000000
H    -3.467000000    -4.048000000    -3.944000000
H    -3.233000000    -4.099000000    -2.450000000
