218
-1459.41703
C    -4.022000000     2.122000000     2.502000000
H    -3.773000000     3.169000000     2.352000000
C    -3.066000000     1.263000000     3.128000000
C    -3.454000000    -0.091000000     3.411000000
H    -2.660000000    -0.795000000     3.645000000
C    -1.696000000     1.746000000     3.461000000
O    -1.488000000     3.115000000     3.382000000
H    -1.132000000     1.293000000     2.631000000
O    -1.188000000     1.060000000     4.653000000
C     0.136000000     0.629000000     4.646000000
C     0.359000000    -0.747000000     4.777000000
H    -0.508000000    -1.386000000     4.922000000
C     1.607000000    -1.319000000     4.515000000
O     1.561000000    -2.678000000     4.340000000
C     2.691000000    -0.537000000     4.246000000
C     4.059000000    -1.214000000     3.865000000
H     4.900000000    -0.663000000     4.291000000
C     4.177000000    -1.349000000     2.354000000
C     4.747000000    -0.351000000     1.592000000
H     5.243000000     0.518000000     2.017000000
H     4.071000000    -2.196000000     4.343000000
C     2.521000000     0.861000000     4.238000000
H     3.371000000     1.522000000     4.084000000
C     1.224000000     1.409000000     4.425000000
C     1.095000000     2.965000000     4.379000000
H     2.041000000     3.389000000     4.723000000
H     0.350000000     3.286000000     5.110000000
C     0.841000000     3.639000000     3.069000000
C     1.842000000     4.190000000     2.248000000
H     2.848000000     4.090000000     2.646000000
C    -0.490000000     3.669000000     2.534000000
C    -0.798000000     4.284000000     1.304000000
H    -1.816000000     4.327000000     0.924000000
C     0.240000000     4.738000000     0.491000000
O    -0.085000000     5.077000000    -0.731000000
C     0.307000000     4.054000000    -1.727000000
C    -0.794000000     3.764000000    -2.720000000
C    -0.559000000     3.313000000    -4.027000000
H     0.464000000     3.051000000    -4.283000000
C    -2.107000000     3.774000000    -2.297000000
H    -2.282000000     3.956000000    -1.240000000
O     1.495000000     4.512000000    -2.359000000
H     0.512000000     3.098000000    -1.223000000
C     1.546000000     4.668000000     0.979000000
C     2.664000000     5.030000000     0.084000000
H     3.520000000     5.206000000     0.737000000
H     2.592000000     6.030000000    -0.348000000
C     3.187000000     3.887000000    -0.787000000
C     4.029000000     2.940000000    -0.343000000
H     4.424000000     2.964000000     0.669000000
C     2.611000000     3.722000000    -2.071000000
C     2.921000000     2.553000000    -2.778000000
H     2.481000000     2.341000000    -3.749000000
C     3.720000000     1.573000000    -2.249000000
O     3.874000000     0.389000000    -2.936000000
C     3.133000000    -0.744000000    -2.393000000
C     2.408000000    -1.512000000    -3.553000000
C     2.262000000    -1.075000000    -4.847000000
H     2.734000000    -0.130000000    -5.100000000
C     1.742000000    -2.701000000    -3.263000000
H     1.780000000    -3.068000000    -2.241000000
O     4.060000000    -1.607000000    -1.778000000
H     2.382000000    -0.399000000    -1.666000000
C     4.350000000     1.773000000    -1.014000000
C     5.404000000     0.729000000    -0.620000000
H     6.121000000     1.293000000    -0.019000000
H     5.903000000     0.332000000    -1.506000000
C     4.772000000    -0.388000000     0.149000000
C     4.219000000    -1.543000000    -0.480000000
C     3.650000000    -2.522000000     0.289000000
H     3.250000000    -3.396000000    -0.218000000
C     3.645000000    -2.462000000     1.708000000
O     2.853000000    -3.405000000     2.348000000
C     1.466000000    -3.063000000     2.866000000
H     1.065000000    -2.238000000     2.260000000
C     0.585000000    -4.294000000     2.638000000
C    -0.456000000    -4.511000000     3.527000000
H    -0.642000000    -3.764000000     4.295000000
C     0.708000000    -5.151000000     1.538000000
H     1.592000000    -5.076000000     0.911000000
C    -0.142000000    -6.250000000     1.355000000
O     0.018000000    -7.179000000     0.300000000
C    -1.164000000    -6.427000000     2.273000000
H    -1.899000000    -7.212000000     2.116000000
C    -1.384000000    -5.534000000     3.297000000
O    -2.517000000    -5.741000000     4.046000000
C    -3.371000000    -4.746000000     4.507000000
C    -3.823000000    -3.810000000     3.589000000
H    -3.535000000    -3.850000000     2.542000000
C    -3.693000000    -4.690000000     5.842000000
H    -3.325000000    -5.441000000     6.536000000
C    -4.528000000    -3.648000000     6.301000000
H    -4.989000000    -3.660000000     7.286000000
C    -4.897000000    -2.630000000     5.404000000
H    -5.399000000    -1.711000000     5.696000000
C    -4.575000000    -2.745000000     4.065000000
O    -5.113000000    -1.780000000     3.177000000
C    -4.784000000    -0.446000000     3.193000000
C    -5.717000000     0.459000000     2.668000000
H    -6.731000000     0.154000000     2.423000000
C    -5.315000000     1.715000000     2.281000000
O    -6.275000000     2.558000000     1.758000000
C    -6.014000000     3.473000000     0.732000000
C    -5.322000000     3.057000000    -0.402000000
H    -5.063000000     2.019000000    -0.596000000
C    -6.475000000     4.750000000     0.808000000
H    -6.938000000     5.030000000     1.751000000
C    -6.220000000     5.709000000    -0.207000000
H    -6.547000000     6.740000000    -0.100000000
C    -5.515000000     5.335000000    -1.323000000
H    -5.378000000     6.093000000    -2.090000000
C    -5.065000000     3.976000000    -1.425000000
O    -4.516000000     3.601000000    -2.654000000
C    -3.232000000     3.556000000    -3.180000000
C    -2.921000000     3.339000000    -4.512000000
H    -3.765000000     3.268000000    -5.193000000
C    -1.591000000     3.107000000    -4.926000000
O    -1.448000000     2.696000000    -6.284000000
C    -0.236000000     2.203000000    -6.772000000
C    -0.143000000     0.807000000    -6.695000000
H    -0.876000000     0.134000000    -6.258000000
C     0.685000000     3.075000000    -7.358000000
H     0.421000000     4.117000000    -7.521000000
C     1.878000000     2.465000000    -7.811000000
H     2.593000000     3.102000000    -8.324000000
C     2.022000000     1.039000000    -7.659000000
H     2.952000000     0.575000000    -7.978000000
C     1.028000000     0.252000000    -7.167000000
O     1.246000000    -1.081000000    -7.018000000
C     1.475000000    -1.721000000    -5.797000000
C     0.820000000    -2.935000000    -5.502000000
H     0.269000000    -3.457000000    -6.280000000
C     0.905000000    -3.392000000    -4.198000000
O     0.265000000    -4.535000000    -3.814000000
C     0.820000000    -5.474000000    -2.911000000
C     2.060000000    -6.039000000    -3.154000000
H     2.590000000    -5.706000000    -4.043000000
C     2.759000000    -6.817000000    -2.233000000
H     3.755000000    -7.154000000    -2.511000000
C     2.083000000    -7.170000000    -1.063000000
H     2.465000000    -7.895000000    -0.349000000
C     0.771000000    -6.809000000    -0.857000000
C     0.144000000    -5.976000000    -1.806000000
H    -0.875000000    -5.633000000    -1.641000000
C    -0.732000000    -2.299000000    -0.554000000
H    -0.577000000    -3.366000000    -0.697000000
C     0.271000000    -1.507000000    -0.122000000
H     1.254000000    -1.948000000     0.024000000
C    -0.001000000    -0.186000000     0.356000000
C     1.102000000     0.603000000     1.075000000
H     1.856000000     0.896000000     0.342000000
H     0.714000000     1.454000000     1.640000000
H     1.596000000    -0.142000000     1.702000000
C    -1.312000000     0.348000000     0.238000000
H    -1.452000000     1.401000000     0.466000000
C    -2.298000000    -0.487000000    -0.263000000
H    -3.319000000    -0.133000000    -0.386000000
C    -2.077000000    -1.841000000    -0.498000000
C    -3.076000000    -2.775000000    -1.011000000
O    -4.240000000    -2.380000000    -0.976000000
O    -2.838000000    -3.949000000    -1.207000000
O    -2.994000000    -5.477000000    -3.268000000
H    -2.662000000    -4.879000000    -3.939000000
H    -2.924000000    -4.982000000    -2.451000000
O    -4.278000000    -1.038000000    -7.099000000
H    -3.886000000    -1.034000000    -6.226000000
H    -3.641000000    -1.499000000    -7.645000000
O    -6.950000000    -1.633000000    -6.061000000
H    -6.248000000    -2.114000000    -5.623000000
H    -6.500000000    -1.084000000    -6.702000000
O    -6.497000000    -1.682000000     0.120000000
H    -6.296000000    -1.924000000     1.025000000
H    -5.704000000    -1.903000000    -0.368000000
O    -7.075000000    -6.306000000    -2.411000000
H    -6.386000000    -5.802000000    -1.979000000
H    -7.660000000    -5.645000000    -2.781000000
O    -4.035000000    -9.022000000     0.860000000
H    -3.642000000    -8.520000000     0.146000000
H    -4.107000000    -9.912000000     0.515000000
O    -6.701000000     1.647000000    -4.046000000
H    -5.995000000     1.009000000    -3.944000000
H    -6.276000000     2.497000000    -3.927000000
O    -7.938000000    -5.865000000     0.516000000
H    -8.547000000    -6.532000000     0.831000000
H    -7.920000000    -5.985000000    -0.433000000
O    -1.222000000    -6.726000000    -5.036000000
H    -2.073000000    -6.514000000    -4.652000000
H    -0.834000000    -5.875000000    -5.243000000
O    -7.417000000    -3.763000000     2.306000000
H    -6.725000000    -4.175000000     2.823000000
H    -7.461000000    -4.285000000     1.505000000
O    -5.544000000    -4.051000000    -5.390000000
H    -5.153000000    -4.128000000    -6.260000000
H    -4.810000000    -4.166000000    -4.786000000
O    -9.102000000    -1.127000000    -0.257000000
H    -9.016000000    -1.262000000    -1.201000000
H    -8.221000000    -1.271000000     0.087000000
O    -0.750000000    -0.073000000    -2.946000000
H    -0.390000000    -0.883000000    -2.583000000
H    -0.700000000     0.555000000    -2.226000000
O    -2.622000000    -3.814000000    -5.437000000
H    -2.613000000    -2.869000000    -5.285000000
H    -2.385000000    -3.911000000    -6.360000000
O    -4.644000000    -7.556000000    -3.447000000
H    -5.455000000    -7.217000000    -3.068000000
H    -4.002000000    -6.862000000    -3.300000000
O    -2.950000000    -8.163000000    -1.437000000
H    -3.731000000    -8.339000000    -1.962000000
H    -2.658000000    -7.298000000    -1.724000000
O    -5.804000000    -1.511000000    -2.962000000
H    -5.242000000    -1.952000000    -2.325000000
H    -6.684000000    -1.581000000    -2.594000000
O    -2.788000000    -1.339000000    -4.622000000
H    -3.527000000    -1.515000000    -4.040000000
H    -2.147000000    -0.895000000    -4.067000000
O    -4.919000000    -5.567000000    -0.768000000
H    -5.116000000    -5.743000000     0.152000000
H    -4.384000000    -4.774000000    -0.750000000
