218
-1453.93949
C    -4.243000000     2.045000000     2.348000000
H    -3.984000000     3.069000000     2.092000000
C    -3.327000000     1.209000000     2.862000000
C    -3.607000000    -0.128000000     3.122000000
H    -2.880000000    -0.786000000     3.592000000
C    -1.949000000     1.773000000     3.284000000
O    -1.798000000     3.238000000     3.300000000
H    -1.425000000     1.372000000     2.403000000
O    -1.400000000     1.140000000     4.536000000
C    -0.068000000     0.751000000     4.637000000
C     0.192000000    -0.606000000     4.515000000
H    -0.645000000    -1.277000000     4.343000000
C     1.431000000    -1.165000000     4.337000000
O     1.407000000    -2.489000000     4.164000000
C     2.553000000    -0.323000000     4.228000000
C     3.904000000    -0.922000000     3.877000000
H     4.745000000    -0.289000000     4.169000000
C     4.139000000    -1.153000000     2.380000000
C     4.699000000    -0.142000000     1.648000000
H     5.006000000     0.677000000     2.293000000
H     4.053000000    -1.877000000     4.385000000
C     2.234000000     1.076000000     4.313000000
H     3.121000000     1.655000000     4.070000000
C     0.996000000     1.643000000     4.523000000
C     0.813000000     3.146000000     4.605000000
H     1.649000000     3.667000000     5.076000000
H    -0.031000000     3.467000000     5.219000000
C     0.586000000     3.695000000     3.238000000
C     1.686000000     4.188000000     2.488000000
H     2.674000000     4.264000000     2.935000000
C    -0.698000000     3.857000000     2.714000000
C    -0.916000000     4.462000000     1.495000000
H    -1.921000000     4.609000000     1.108000000
C     0.151000000     4.625000000     0.655000000
O    -0.195000000     4.882000000    -0.622000000
C     0.155000000     3.906000000    -1.707000000
C    -0.890000000     3.725000000    -2.760000000
C    -0.562000000     3.380000000    -4.060000000
H     0.471000000     3.325000000    -4.395000000
C    -2.254000000     3.887000000    -2.421000000
H    -2.452000000     4.186000000    -1.395000000
O     1.464000000     4.263000000    -2.297000000
H     0.328000000     2.966000000    -1.162000000
C     1.454000000     4.515000000     1.129000000
C     2.542000000     4.961000000     0.217000000
H     3.405000000     5.349000000     0.763000000
H     2.221000000     5.817000000    -0.381000000
C     3.097000000     3.825000000    -0.624000000
C     4.051000000     2.901000000    -0.136000000
H     4.729000000     3.213000000     0.655000000
C     2.464000000     3.525000000    -1.849000000
C     2.709000000     2.378000000    -2.543000000
H     2.102000000     2.105000000    -3.402000000
C     3.663000000     1.530000000    -2.050000000
O     3.746000000     0.389000000    -2.780000000
C     3.219000000    -0.802000000    -2.313000000
C     2.684000000    -1.632000000    -3.425000000
C     2.188000000    -1.003000000    -4.600000000
H     2.173000000     0.081000000    -4.684000000
C     2.375000000    -2.984000000    -3.186000000
H     2.710000000    -3.477000000    -2.277000000
O     4.325000000    -1.536000000    -1.695000000
H     2.482000000    -0.584000000    -1.526000000
C     4.349000000     1.759000000    -0.865000000
C     5.476000000     0.791000000    -0.497000000
H     6.225000000     1.264000000     0.142000000
H     6.106000000     0.455000000    -1.323000000
C     4.905000000    -0.293000000     0.276000000
C     4.445000000    -1.500000000    -0.357000000
C     3.845000000    -2.517000000     0.402000000
H     3.261000000    -3.234000000    -0.168000000
C     3.610000000    -2.241000000     1.724000000
O     2.810000000    -3.177000000     2.414000000
C     1.409000000    -2.836000000     2.808000000
H     0.999000000    -1.987000000     2.242000000
C     0.476000000    -4.057000000     2.603000000
C    -0.588000000    -4.302000000     3.498000000
H    -0.808000000    -3.714000000     4.385000000
C     0.706000000    -4.905000000     1.508000000
H     1.579000000    -4.729000000     0.885000000
C    -0.032000000    -6.017000000     1.339000000
O     0.206000000    -6.820000000     0.271000000
C    -1.147000000    -6.236000000     2.130000000
H    -1.730000000    -7.141000000     1.985000000
C    -1.411000000    -5.363000000     3.200000000
O    -2.422000000    -5.682000000     4.017000000
C    -3.431000000    -4.781000000     4.344000000
C    -3.837000000    -3.849000000     3.342000000
H    -3.519000000    -3.926000000     2.306000000
C    -3.917000000    -4.744000000     5.665000000
H    -3.590000000    -5.521000000     6.350000000
C    -4.762000000    -3.741000000     6.057000000
H    -5.141000000    -3.684000000     7.075000000
C    -5.022000000    -2.764000000     5.062000000
H    -5.766000000    -2.008000000     5.300000000
C    -4.648000000    -2.849000000     3.762000000
O    -5.177000000    -1.981000000     2.873000000
C    -4.870000000    -0.658000000     2.783000000
C    -5.756000000     0.211000000     2.115000000
H    -6.730000000    -0.176000000     1.827000000
C    -5.508000000     1.605000000     1.913000000
O    -6.413000000     2.504000000     1.333000000
C    -5.967000000     3.393000000     0.446000000
C    -5.238000000     3.136000000    -0.705000000
H    -4.832000000     2.182000000    -1.031000000
C    -6.376000000     4.695000000     0.679000000
H    -6.933000000     4.803000000     1.606000000
C    -6.272000000     5.712000000    -0.271000000
H    -6.732000000     6.687000000    -0.130000000
C    -5.666000000     5.437000000    -1.523000000
H    -5.701000000     6.068000000    -2.407000000
C    -5.066000000     4.171000000    -1.666000000
O    -4.639000000     3.792000000    -2.907000000
C    -3.296000000     3.516000000    -3.264000000
C    -2.952000000     3.123000000    -4.586000000
H    -3.690000000     3.013000000    -5.376000000
C    -1.596000000     3.105000000    -4.948000000
O    -1.397000000     2.999000000    -6.296000000
C    -0.275000000     2.207000000    -6.772000000
C    -0.300000000     0.840000000    -6.469000000
H    -1.234000000     0.490000000    -6.038000000
C     0.756000000     2.721000000    -7.527000000
H     0.725000000     3.752000000    -7.870000000
C     1.834000000     1.963000000    -7.976000000
H     2.618000000     2.401000000    -8.588000000
C     1.845000000     0.634000000    -7.656000000
H     2.610000000     0.037000000    -8.145000000
C     0.836000000     0.072000000    -6.889000000
O     0.899000000    -1.257000000    -6.696000000
C     1.519000000    -1.831000000    -5.586000000
C     1.293000000    -3.197000000    -5.296000000
H     0.869000000    -3.819000000    -6.079000000
C     1.684000000    -3.790000000    -4.071000000
O     1.464000000    -5.158000000    -3.976000000
C     1.728000000    -5.868000000    -2.874000000
C     3.055000000    -6.239000000    -2.657000000
H     3.774000000    -5.935000000    -3.414000000
C     3.440000000    -6.802000000    -1.420000000
H     4.502000000    -6.947000000    -1.242000000
C     2.504000000    -6.964000000    -0.423000000
H     2.818000000    -7.307000000     0.559000000
C     1.171000000    -6.598000000    -0.680000000
C     0.794000000    -6.078000000    -1.911000000
H    -0.269000000    -5.899000000    -2.045000000
C    -1.136000000    -2.533000000    -0.509000000
H    -0.886000000    -3.586000000    -0.608000000
C    -0.130000000    -1.689000000    -0.052000000
H     0.888000000    -2.017000000     0.143000000
C    -0.388000000    -0.343000000     0.206000000
C     0.718000000     0.573000000     0.811000000
H     1.655000000     0.372000000     0.287000000
H     0.409000000     1.616000000     0.718000000
H     1.005000000     0.322000000     1.834000000
C    -1.632000000     0.230000000    -0.070000000
H    -1.866000000     1.283000000     0.061000000
C    -2.664000000    -0.648000000    -0.479000000
H    -3.625000000    -0.150000000    -0.576000000
C    -2.446000000    -1.987000000    -0.757000000
C    -3.574000000    -2.894000000    -1.198000000
O    -4.706000000    -2.500000000    -1.143000000
O    -3.308000000    -4.035000000    -1.592000000
O    -8.384000000    -2.843000000     2.225000000
H    -8.003000000    -3.593000000     2.682000000
H    -7.644000000    -2.433000000     1.778000000
O    -1.962000000    -5.101000000    -3.472000000
H    -1.832000000    -4.281000000    -3.948000000
H    -2.526000000    -4.865000000    -2.736000000
O    -6.507000000    -1.589000000    -6.184000000
H    -5.888000000    -1.474000000    -5.463000000
H    -5.956000000    -1.772000000    -6.945000000
O    -7.097000000    -1.754000000    -0.218000000
H    -7.424000000    -2.273000000    -0.952000000
H    -6.146000000    -1.751000000    -0.332000000
O    -7.042000000    -6.725000000    -3.123000000
H    -7.625000000    -6.725000000    -2.363000000
H    -6.783000000    -5.810000000    -3.227000000
O    -8.020000000    -3.892000000    -5.427000000
H    -7.183000000    -4.103000000    -5.013000000
H    -7.809000000    -3.203000000    -6.056000000
O    -1.298000000    -7.587000000    -4.594000000
H    -1.621000000    -6.734000000    -4.303000000
H    -0.928000000    -7.420000000    -5.461000000
O    -6.179000000    -4.595000000    -0.154000000
H    -5.473000000    -3.971000000    -0.324000000
H    -6.913000000    -4.274000000    -0.677000000
O    -5.444000000    -7.080000000     0.588000000
H    -4.602000000    -6.953000000     0.150000000
H    -5.828000000    -6.204000000     0.624000000
O    -4.921000000    -4.485000000    -6.091000000
H    -4.850000000    -5.428000000    -6.242000000
H    -4.933000000    -4.102000000    -6.968000000
O    -7.555000000    -5.305000000     2.848000000
H    -7.426000000    -5.925000000     3.566000000
H    -6.672000000    -5.125000000     2.526000000
O    -1.254000000    -0.439000000    -3.783000000
H    -0.686000000     0.312000000    -3.612000000
H    -1.303000000    -0.898000000    -2.944000000
O    -2.149000000    -3.088000000    -5.423000000
H    -2.707000000    -2.414000000    -5.034000000
H    -1.608000000    -2.615000000    -6.055000000
O    -4.339000000    -7.389000000    -4.811000000
H    -5.104000000    -7.651000000    -4.300000000
H    -3.834000000    -6.832000000    -4.219000000
O    -8.273000000    -3.595000000    -2.286000000
H    -8.759000000    -2.797000000    -2.493000000
H    -7.551000000    -3.605000000    -2.915000000
O    -3.035000000    -6.694000000    -0.629000000
H    -2.428000000    -7.175000000    -1.193000000
H    -3.050000000    -5.809000000    -0.994000000
O    -5.926000000    -0.726000000    -3.005000000
H    -5.529000000    -1.422000000    -2.481000000
H    -6.495000000    -0.260000000    -2.392000000
O    -3.912000000    -0.277000000    -5.049000000
H    -4.513000000    -0.371000000    -4.309000000
H    -3.040000000    -0.323000000    -4.657000000
O    -5.706000000    -4.194000000    -3.386000000
H    -5.410000000    -4.346000000    -4.284000000
H    -4.917000000    -4.295000000    -2.853000000
