218
-1479.33373
C    -4.189000000     1.299000000     2.036000000
H    -3.769000000     2.152000000     1.509000000
C    -3.430000000     0.745000000     3.079000000
C    -3.797000000    -0.463000000     3.627000000
H    -3.158000000    -0.971000000     4.345000000
C    -2.059000000     1.389000000     3.393000000
O    -2.229000000     2.828000000     3.430000000
H    -1.309000000     1.092000000     2.646000000
O    -1.614000000     1.065000000     4.735000000
C    -0.311000000     0.649000000     4.827000000
C    -0.069000000    -0.697000000     4.592000000
H    -0.870000000    -1.429000000     4.530000000
C     1.239000000    -1.167000000     4.382000000
O     1.386000000    -2.478000000     3.993000000
C     2.286000000    -0.292000000     4.329000000
C     3.717000000    -0.720000000     4.116000000
H     4.337000000     0.020000000     4.627000000
C     4.065000000    -0.817000000     2.596000000
C     4.587000000     0.293000000     1.920000000
H     4.932000000     1.136000000     2.513000000
H     3.943000000    -1.628000000     4.679000000
C     2.040000000     1.097000000     4.478000000
H     2.838000000     1.787000000     4.216000000
C     0.759000000     1.565000000     4.788000000
C     0.538000000     3.080000000     4.822000000
H     1.476000000     3.459000000     5.234000000
H    -0.197000000     3.411000000     5.559000000
C     0.148000000     3.481000000     3.423000000
C     1.136000000     4.144000000     2.671000000
H     2.157000000     4.140000000     3.045000000
C    -1.145000000     3.482000000     2.876000000
C    -1.365000000     4.012000000     1.609000000
H    -2.331000000     3.820000000     1.151000000
C    -0.398000000     4.655000000     0.857000000
O    -0.658000000     4.898000000    -0.455000000
C    -0.287000000     3.851000000    -1.325000000
C    -1.411000000     3.533000000    -2.333000000
C    -1.125000000     2.779000000    -3.429000000
H    -0.128000000     2.363000000    -3.551000000
C    -2.737000000     3.818000000    -2.057000000
H    -2.951000000     4.288000000    -1.101000000
O     0.912000000     4.232000000    -1.985000000
H    -0.087000000     2.990000000    -0.671000000
C     0.894000000     4.683000000     1.435000000
C     2.061000000     5.226000000     0.604000000
H     2.759000000     5.751000000     1.259000000
H     1.644000000     5.970000000    -0.078000000
C     2.708000000     4.131000000    -0.314000000
C     3.880000000     3.473000000     0.073000000
H     4.383000000     3.747000000     0.997000000
C     2.075000000     3.765000000    -1.537000000
C     2.636000000     2.714000000    -2.306000000
H     2.163000000     2.316000000    -3.200000000
C     3.821000000     2.048000000    -1.903000000
O     4.211000000     1.004000000    -2.739000000
C     3.842000000    -0.308000000    -2.388000000
C     3.589000000    -1.092000000    -3.701000000
C     3.150000000    -0.410000000    -4.881000000
H     2.865000000     0.638000000    -4.840000000
C     3.522000000    -2.487000000    -3.682000000
H     3.738000000    -2.906000000    -2.703000000
O     4.809000000    -0.944000000    -1.492000000
H     2.845000000    -0.349000000    -1.925000000
C     4.408000000     2.412000000    -0.703000000
C     5.519000000     1.507000000    -0.072000000
H     6.118000000     2.114000000     0.610000000
H     6.285000000     1.166000000    -0.772000000
C     4.903000000     0.303000000     0.541000000
C     4.605000000    -0.845000000    -0.156000000
C     4.086000000    -1.993000000     0.488000000
H     3.928000000    -2.868000000    -0.137000000
C     3.810000000    -1.967000000     1.830000000
O     3.082000000    -2.978000000     2.400000000
C     1.665000000    -2.700000000     2.652000000
H     1.440000000    -1.865000000     1.971000000
C     0.792000000    -3.883000000     2.131000000
C    -0.353000000    -4.288000000     2.851000000
H    -0.536000000    -3.869000000     3.836000000
C     1.104000000    -4.399000000     0.869000000
H     1.989000000    -4.117000000     0.304000000
C     0.336000000    -5.482000000     0.414000000
O     0.459000000    -5.993000000    -0.864000000
C    -0.785000000    -5.864000000     1.144000000
H    -1.429000000    -6.630000000     0.720000000
C    -1.194000000    -5.310000000     2.298000000
O    -2.324000000    -5.751000000     3.006000000
C    -3.099000000    -4.987000000     3.794000000
C    -3.877000000    -3.967000000     3.247000000
H    -3.790000000    -3.761000000     2.184000000
C    -3.316000000    -5.429000000     5.122000000
H    -2.645000000    -6.218000000     5.452000000
C    -4.126000000    -4.699000000     5.967000000
H    -4.334000000    -4.963000000     7.001000000
C    -4.810000000    -3.613000000     5.444000000
H    -5.453000000    -3.049000000     6.115000000
C    -4.726000000    -3.233000000     4.111000000
O    -5.530000000    -2.181000000     3.689000000
C    -5.025000000    -0.996000000     3.239000000
C    -5.931000000    -0.350000000     2.413000000
H    -6.904000000    -0.817000000     2.282000000
C    -5.471000000     0.761000000     1.753000000
O    -6.404000000     1.381000000     1.043000000
C    -6.258000000     2.565000000     0.395000000
C    -5.657000000     2.687000000    -0.808000000
H    -5.126000000     1.820000000    -1.194000000
C    -6.800000000     3.698000000     0.907000000
H    -7.357000000     3.672000000     1.840000000
C    -6.894000000     4.911000000     0.182000000
H    -7.373000000     5.793000000     0.601000000
C    -6.285000000     5.019000000    -1.052000000
H    -6.351000000     5.881000000    -1.712000000
C    -5.673000000     3.886000000    -1.502000000
O    -5.080000000     3.723000000    -2.731000000
C    -3.766000000     3.436000000    -2.953000000
C    -3.414000000     2.795000000    -4.076000000
H    -4.212000000     2.650000000    -4.799000000
C    -2.146000000     2.353000000    -4.371000000
O    -1.884000000     1.481000000    -5.388000000
C    -0.756000000     1.518000000    -6.209000000
C     0.199000000     0.552000000    -6.204000000
H     0.005000000    -0.265000000    -5.513000000
C    -0.616000000     2.554000000    -7.158000000
H    -1.351000000     3.355000000    -7.165000000
C     0.519000000     2.624000000    -7.944000000
H     0.647000000     3.339000000    -8.753000000
C     1.483000000     1.591000000    -7.924000000
H     2.390000000     1.652000000    -8.520000000
C     1.287000000     0.549000000    -7.056000000
O     2.053000000    -0.601000000    -7.111000000
C     2.708000000    -1.164000000    -6.012000000
C     2.704000000    -2.547000000    -5.933000000
H     2.343000000    -3.060000000    -6.821000000
C     3.129000000    -3.246000000    -4.815000000
O     2.955000000    -4.640000000    -4.735000000
C     2.865000000    -5.377000000    -3.611000000
C     3.930000000    -6.221000000    -3.264000000
H     4.751000000    -6.265000000    -3.975000000
C     3.853000000    -6.998000000    -2.138000000
H     4.607000000    -7.725000000    -1.848000000
C     2.745000000    -6.901000000    -1.335000000
H     2.668000000    -7.515000000    -0.442000000
C     1.655000000    -5.980000000    -1.630000000
C     1.736000000    -5.336000000    -2.807000000
H     0.888000000    -4.686000000    -3.004000000
C    -1.337000000    -2.634000000    -0.518000000
H    -1.289000000    -3.712000000    -0.655000000
C    -0.245000000    -1.829000000    -0.372000000
H     0.738000000    -2.280000000    -0.479000000
C    -0.391000000    -0.505000000     0.024000000
C     0.803000000     0.397000000     0.203000000
H     1.647000000    -0.168000000     0.603000000
H     1.003000000     0.715000000    -0.822000000
H     0.531000000     1.236000000     0.847000000
C    -1.665000000    -0.007000000     0.249000000
H    -1.794000000     1.053000000     0.456000000
C    -2.797000000    -0.723000000    -0.072000000
H    -3.776000000    -0.256000000    -0.005000000
C    -2.640000000    -2.072000000    -0.402000000
C    -3.907000000    -2.861000000    -0.701000000
O    -4.887000000    -2.398000000    -1.197000000
O    -3.859000000    -4.091000000    -0.804000000
O    -9.170000000    -1.600000000     0.618000000
H    -8.335000000    -2.055000000     0.511000000
H    -9.227000000    -1.422000000     1.557000000
O    -8.149000000    -6.032000000    -4.480000000
H    -8.968000000    -5.562000000    -4.325000000
H    -7.468000000    -5.435000000    -4.170000000
O    -5.543000000    -0.007000000    -2.483000000
H    -5.295000000    -0.522000000    -1.715000000
H    -5.031000000    -0.383000000    -3.199000000
O    -3.178000000    -6.301000000    -5.264000000
H    -2.264000000    -6.230000000    -5.538000000
H    -3.195000000    -5.916000000    -4.388000000
O    -3.816000000    -0.637000000    -4.726000000
H    -3.280000000     0.155000000    -4.707000000
H    -3.183000000    -1.355000000    -4.722000000
O    -6.944000000    -5.545000000     1.922000000
H    -7.734000000    -5.934000000     1.547000000
H    -7.015000000    -5.717000000     2.861000000
O    -2.402000000    -5.154000000    -2.861000000
H    -1.535000000    -5.268000000    -2.472000000
H    -2.960000000    -4.889000000    -2.130000000
O    -9.154000000    -4.465000000     0.053000000
H    -9.722000000    -3.766000000    -0.271000000
H    -8.301000000    -4.046000000     0.169000000
O    -6.871000000    -3.216000000     0.387000000
H    -6.054000000    -3.127000000    -0.104000000
H    -6.628000000    -3.715000000     1.167000000
O    -8.449000000     0.693000000    -0.784000000
H    -8.911000000     0.220000000    -0.093000000
H    -7.728000000     1.132000000    -0.333000000
O    -4.380000000    -3.696000000    -6.310000000
H    -5.296000000    -3.480000000    -6.136000000
H    -4.419000000    -4.487000000    -6.849000000
O    -7.958000000    -1.743000000    -2.666000000
H    -7.287000000    -2.305000000    -2.279000000
H    -7.835000000    -0.895000000    -2.240000000
O    -2.119000000    -3.286000000    -4.802000000
H    -2.783000000    -3.367000000    -5.487000000
H    -2.274000000    -4.037000000    -4.229000000
O    -6.437000000    -6.807000000    -2.485000000
H    -6.046000000    -5.936000000    -2.419000000
H    -7.137000000    -6.708000000    -3.129000000
O    -4.185000000    -9.135000000     0.527000000
H    -4.342000000    -8.203000000     0.375000000
H    -4.646000000    -9.575000000    -0.187000000
O    -5.886000000    -4.008000000    -3.177000000
H    -5.489000000    -3.514000000    -2.460000000
H    -5.232000000    -3.984000000    -3.875000000
O    -4.856000000    -7.515000000     3.247000000
H    -3.929000000    -7.361000000     3.428000000
H    -4.963000000    -7.279000000     2.326000000
O    -0.036000000    -1.926000000    -3.340000000
H    -0.630000000    -2.401000000    -3.921000000
H    -0.594000000    -1.287000000    -2.897000000
O    -4.872000000    -6.446000000     0.303000000
H    -5.687000000    -6.166000000     0.720000000
H    -4.524000000    -5.651000000    -0.100000000
