218
-1489.83118
C    -4.124000000     2.052000000     2.325000000
H    -3.754000000     2.843000000     1.678000000
C    -3.326000000     1.487000000     3.344000000
C    -3.902000000     0.403000000     4.043000000
H    -3.368000000    -0.066000000     4.866000000
C    -1.918000000     1.910000000     3.538000000
O    -1.674000000     3.347000000     3.485000000
H    -1.385000000     1.417000000     2.712000000
O    -1.406000000     1.341000000     4.735000000
C    -0.127000000     0.726000000     4.625000000
C    -0.126000000    -0.712000000     4.460000000
H    -1.056000000    -1.257000000     4.600000000
C     1.081000000    -1.342000000     4.197000000
O     1.004000000    -2.690000000     3.978000000
C     2.270000000    -0.596000000     4.053000000
C     3.662000000    -1.255000000     3.918000000
H     4.364000000    -0.630000000     4.474000000
C     3.902000000    -1.320000000     2.377000000
C     4.664000000    -0.368000000     1.735000000
H     4.963000000     0.496000000     2.323000000
H     3.651000000    -2.169000000     4.515000000
C     2.272000000     0.812000000     4.247000000
H     3.179000000     1.397000000     4.117000000
C     1.058000000     1.445000000     4.521000000
C     1.058000000     2.970000000     4.638000000
H     2.015000000     3.326000000     5.025000000
H     0.307000000     3.351000000     5.333000000
C     0.717000000     3.667000000     3.337000000
C     1.790000000     4.024000000     2.548000000
H     2.798000000     3.949000000     2.948000000
C    -0.557000000     3.789000000     2.843000000
C    -0.738000000     4.240000000     1.591000000
H    -1.706000000     4.392000000     1.120000000
C     0.279000000     4.495000000     0.687000000
O     0.052000000     4.846000000    -0.623000000
C     0.363000000     3.819000000    -1.618000000
C    -0.825000000     3.766000000    -2.568000000
C    -0.697000000     3.212000000    -3.855000000
H     0.310000000     2.901000000    -4.120000000
C    -2.131000000     4.120000000    -2.110000000
H    -2.234000000     4.435000000    -1.075000000
O     1.524000000     4.222000000    -2.342000000
H     0.518000000     2.794000000    -1.251000000
C     1.601000000     4.482000000     1.203000000
C     2.725000000     4.841000000     0.244000000
H     3.668000000     5.179000000     0.678000000
H     2.495000000     5.650000000    -0.453000000
C     3.180000000     3.627000000    -0.706000000
C     4.089000000     2.705000000    -0.241000000
H     4.507000000     2.852000000     0.752000000
C     2.680000000     3.530000000    -2.011000000
C     3.116000000     2.490000000    -2.808000000
H     2.741000000     2.454000000    -3.827000000
C     3.885000000     1.471000000    -2.283000000
O     4.038000000     0.350000000    -2.982000000
C     3.347000000    -0.847000000    -2.494000000
C     2.743000000    -1.626000000    -3.634000000
C     2.295000000    -0.990000000    -4.807000000
H     2.393000000     0.093000000    -4.789000000
C     2.543000000    -3.010000000    -3.512000000
H     2.890000000    -3.431000000    -2.572000000
O     4.297000000    -1.679000000    -1.786000000
H     2.480000000    -0.521000000    -1.899000000
C     4.438000000     1.569000000    -1.003000000
C     5.459000000     0.706000000    -0.412000000
H     6.049000000     1.313000000     0.278000000
H     6.005000000     0.205000000    -1.213000000
C     4.836000000    -0.359000000     0.345000000
C     4.286000000    -1.519000000    -0.383000000
C     3.550000000    -2.455000000     0.315000000
H     3.242000000    -3.375000000    -0.175000000
C     3.383000000    -2.413000000     1.657000000
O     2.605000000    -3.428000000     2.285000000
C     1.212000000    -3.063000000     2.587000000
H     0.907000000    -2.139000000     2.073000000
C     0.221000000    -4.158000000     2.107000000
C    -1.090000000    -4.304000000     2.650000000
H    -1.428000000    -3.548000000     3.354000000
C     0.600000000    -5.072000000     1.083000000
H     1.610000000    -5.101000000     0.682000000
C    -0.336000000    -6.031000000     0.630000000
O    -0.056000000    -6.914000000    -0.405000000
C    -1.633000000    -6.051000000     1.047000000
H    -2.320000000    -6.811000000     0.684000000
C    -1.970000000    -5.133000000     2.081000000
O    -3.276000000    -5.099000000     2.490000000
C    -3.777000000    -4.335000000     3.539000000
C    -4.334000000    -3.069000000     3.384000000
H    -4.356000000    -2.580000000     2.413000000
C    -3.709000000    -4.965000000     4.777000000
H    -3.187000000    -5.918000000     4.783000000
C    -4.114000000    -4.306000000     5.942000000
H    -3.990000000    -4.789000000     6.908000000
C    -4.770000000    -3.042000000     5.822000000
H    -5.285000000    -2.637000000     6.689000000
C    -4.887000000    -2.428000000     4.543000000
O    -5.555000000    -1.261000000     4.451000000
C    -5.119000000    -0.154000000     3.749000000
C    -5.904000000     0.436000000     2.772000000
H    -6.832000000    -0.019000000     2.435000000
C    -5.406000000     1.550000000     2.062000000
O    -6.163000000     2.123000000     1.071000000
C    -5.862000000     3.382000000     0.445000000
C    -5.290000000     3.387000000    -0.828000000
H    -4.998000000     2.439000000    -1.272000000
C    -6.080000000     4.547000000     1.120000000
H    -6.639000000     4.528000000     2.052000000
C    -5.637000000     5.781000000     0.557000000
H    -5.850000000     6.725000000     1.052000000
C    -5.109000000     5.823000000    -0.727000000
H    -4.891000000     6.736000000    -1.277000000
C    -4.999000000     4.637000000    -1.429000000
O    -4.472000000     4.649000000    -2.702000000
C    -3.191000000     4.156000000    -3.003000000
C    -2.990000000     3.669000000    -4.313000000
H    -3.881000000     3.686000000    -4.937000000
C    -1.771000000     3.142000000    -4.766000000
O    -1.753000000     2.626000000    -6.008000000
C    -0.628000000     2.095000000    -6.535000000
C    -0.391000000     0.723000000    -6.504000000
H    -1.137000000     0.058000000    -6.076000000
C     0.388000000     2.969000000    -6.866000000
H     0.245000000     4.045000000    -6.800000000
C     1.572000000     2.450000000    -7.377000000
H     2.315000000     3.220000000    -7.566000000
C     1.813000000     1.115000000    -7.382000000
H     2.808000000     0.758000000    -7.635000000
C     0.831000000     0.226000000    -6.912000000
O     1.090000000    -1.147000000    -6.954000000
C     1.708000000    -1.764000000    -5.883000000
C     1.535000000    -3.120000000    -5.673000000
H     1.020000000    -3.668000000    -6.458000000
C     2.006000000    -3.785000000    -4.573000000
O     1.827000000    -5.212000000    -4.393000000
C     2.000000000    -5.880000000    -3.219000000
C     3.195000000    -6.509000000    -2.893000000
H     4.048000000    -6.477000000    -3.565000000
C     3.316000000    -7.177000000    -1.686000000
H     4.167000000    -7.828000000    -1.502000000
C     2.238000000    -7.337000000    -0.842000000
H     2.254000000    -7.901000000     0.086000000
C     1.019000000    -6.756000000    -1.213000000
C     0.882000000    -6.027000000    -2.402000000
H    -0.055000000    -5.585000000    -2.732000000
C    -1.134000000    -2.100000000    -0.687000000
H    -1.120000000    -3.083000000    -1.150000000
C     0.009000000    -1.478000000    -0.259000000
H     0.920000000    -2.045000000    -0.427000000
C    -0.016000000    -0.134000000     0.257000000
C     1.212000000     0.609000000     0.787000000
H     1.661000000     1.413000000     0.199000000
H     0.884000000     0.953000000     1.770000000
H     1.909000000    -0.215000000     0.955000000
C    -1.204000000     0.563000000     0.170000000
H    -1.210000000     1.599000000     0.497000000
C    -2.387000000    -0.123000000    -0.151000000
H    -3.334000000     0.409000000    -0.110000000
C    -2.358000000    -1.467000000    -0.557000000
C    -3.694000000    -2.117000000    -0.994000000
O    -4.746000000    -1.558000000    -0.717000000
O    -3.759000000    -3.237000000    -1.377000000
O    -9.374000000    -2.489000000     0.469000000
H    -8.521000000    -2.210000000     0.802000000
H   -10.001000000    -1.910000000     0.903000000
O    -9.050000000    -1.444000000    -4.615000000
H    -9.493000000    -1.310000000    -3.777000000
H    -8.160000000    -1.123000000    -4.469000000
O    -5.455000000     0.345000000    -2.284000000
H    -5.211000000    -0.311000000    -1.631000000
H    -4.748000000     0.315000000    -2.929000000
O    -5.099000000    -6.041000000    -4.381000000
H    -5.218000000    -5.287000000    -3.804000000
H    -4.863000000    -6.758000000    -3.792000000
O    -3.125000000    -0.284000000    -3.821000000
H    -2.425000000     0.366000000    -3.889000000
H    -2.672000000    -1.127000000    -3.839000000
O    -7.418000000    -3.475000000     3.497000000
H    -6.956000000    -3.295000000     2.678000000
H    -7.219000000    -4.391000000     3.689000000
O    -2.441000000    -4.538000000    -3.002000000
H    -2.689000000    -5.457000000    -2.899000000
H    -3.047000000    -4.061000000    -2.436000000
O    -6.546000000    -2.854000000     0.777000000
H    -5.814000000    -2.314000000     0.478000000
H    -6.330000000    -3.737000000     0.477000000
O    -8.206000000     0.460000000    -0.602000000
H    -8.173000000     0.620000000    -1.545000000
H    -7.488000000     0.983000000    -0.244000000
O    -6.674000000    -2.635000000    -6.176000000
H    -7.390000000    -3.270000000    -6.172000000
H    -6.657000000    -2.288000000    -5.283000000
O    -8.731000000    -3.313000000    -2.224000000
H    -7.996000000    -2.850000000    -2.627000000
H    -8.763000000    -2.979000000    -1.328000000
O    -1.274000000    -2.276000000    -4.293000000
H    -1.475000000    -2.965000000    -3.659000000
H    -1.503000000    -2.657000000    -5.141000000
O    -6.071000000     0.524000000    -6.350000000
H    -6.306000000    -0.147000000    -6.991000000
H    -5.248000000     0.216000000    -5.972000000
O    -6.552000000    -1.710000000    -3.734000000
H    -6.123000000    -0.880000000    -3.526000000
H    -6.109000000    -2.353000000    -3.181000000
O    -3.200000000    -7.074000000    -2.129000000
H    -2.895000000    -7.803000000    -2.668000000
H    -3.175000000    -7.412000000    -1.233000000
O    -5.839000000    -4.081000000    -2.605000000
H    -5.188000000    -3.573000000    -2.122000000
H    -6.147000000    -4.735000000    -1.978000000
O    -7.814000000     1.860000000    -3.230000000
H    -6.880000000     1.655000000    -3.205000000
H    -7.863000000     2.699000000    -3.689000000
O    -0.043000000     0.260000000    -2.989000000
H     0.396000000    -0.445000000    -3.465000000
H    -0.643000000    -0.191000000    -2.393000000
O    -4.970000000    -5.248000000     0.004000000
H    -4.564000000    -5.638000000     0.779000000
H    -4.357000000    -4.565000000    -0.269000000
