218
-1457.43782
C    -4.222000000     0.188000000     3.134000000
H    -4.204000000     1.189000000     3.558000000
C    -3.087000000    -0.553000000     3.098000000
C    -3.125000000    -1.757000000     2.380000000
H    -2.233000000    -2.361000000     2.238000000
C    -1.757000000    -0.019000000     3.676000000
O    -1.931000000     1.190000000     4.401000000
H    -1.043000000     0.165000000     2.860000000
O    -1.141000000    -0.935000000     4.586000000
C     0.201000000    -1.157000000     4.485000000
C     0.608000000    -2.320000000     3.766000000
H    -0.095000000    -3.078000000     3.431000000
C     1.973000000    -2.506000000     3.421000000
O     2.230000000    -3.622000000     2.613000000
C     2.909000000    -1.562000000     3.752000000
C     4.394000000    -1.774000000     3.344000000
H     4.950000000    -1.078000000     3.975000000
C     4.558000000    -1.340000000     1.865000000
C     4.859000000     0.011000000     1.617000000
H     5.058000000     0.651000000     2.473000000
H     4.764000000    -2.794000000     3.471000000
C     2.506000000    -0.365000000     4.432000000
H     3.173000000     0.435000000     4.742000000
C     1.178000000    -0.216000000     4.843000000
C     0.770000000     1.087000000     5.548000000
H     1.594000000     1.427000000     6.180000000
H    -0.080000000     0.861000000     6.195000000
C     0.221000000     2.202000000     4.536000000
C     1.129000000     3.101000000     3.914000000
H     2.162000000     3.033000000     4.246000000
C    -1.094000000     2.161000000     4.118000000
C    -1.501000000     3.050000000     3.112000000
H    -2.504000000     3.051000000     2.692000000
C    -0.626000000     4.022000000     2.610000000
O    -1.025000000     4.656000000     1.499000000
C    -0.741000000     4.030000000     0.304000000
C    -2.027000000     3.901000000    -0.546000000
C    -1.832000000     3.343000000    -1.851000000
H    -0.867000000     2.997000000    -2.211000000
C    -3.274000000     4.261000000    -0.055000000
H    -3.413000000     4.583000000     0.974000000
O     0.304000000     4.863000000    -0.315000000
H    -0.348000000     3.026000000     0.522000000
C     0.691000000     4.035000000     2.948000000
C     1.744000000     4.967000000     2.299000000
H     2.637000000     5.006000000     2.926000000
H     1.205000000     5.910000000     2.187000000
C     2.265000000     4.398000000     1.009000000
C     3.409000000     3.599000000     1.071000000
H     3.993000000     3.545000000     1.986000000
C     1.618000000     4.416000000    -0.218000000
C     2.001000000     3.626000000    -1.299000000
H     1.436000000     3.569000000    -2.226000000
C     3.141000000     2.901000000    -1.192000000
O     3.527000000     2.227000000    -2.365000000
C     3.278000000     0.812000000    -2.453000000
C     2.783000000     0.476000000    -3.888000000
C     2.294000000     1.489000000    -4.728000000
H     2.243000000     2.514000000    -4.371000000
C     2.793000000    -0.878000000    -4.374000000
H     3.179000000    -1.681000000    -3.751000000
O     4.483000000     0.111000000    -2.103000000
H     2.522000000     0.551000000    -1.698000000
C     3.874000000     2.864000000    -0.006000000
C     5.122000000     2.015000000     0.113000000
H     5.732000000     2.314000000     0.967000000
H     5.676000000     2.224000000    -0.805000000
C     4.865000000     0.512000000     0.321000000
C     4.560000000    -0.338000000    -0.773000000
C     4.373000000    -1.681000000    -0.523000000
H     4.096000000    -2.370000000    -1.317000000
C     4.258000000    -2.149000000     0.759000000
O     3.722000000    -3.456000000     0.828000000
C     2.275000000    -3.479000000     1.228000000
H     1.761000000    -2.543000000     0.961000000
C     1.649000000    -4.604000000     0.385000000
C     0.448000000    -5.267000000     0.773000000
H     0.123000000    -5.024000000     1.782000000
C     2.170000000    -4.942000000    -0.850000000
H     3.014000000    -4.370000000    -1.226000000
C     1.558000000    -5.827000000    -1.707000000
O     2.075000000    -6.145000000    -2.930000000
C     0.461000000    -6.531000000    -1.256000000
H    -0.034000000    -7.246000000    -1.909000000
C    -0.123000000    -6.208000000    -0.083000000
O    -1.247000000    -6.835000000     0.295000000
C    -2.262000000    -6.307000000     1.101000000
C    -2.815000000    -5.088000000     0.846000000
H    -2.606000000    -4.564000000    -0.083000000
C    -2.727000000    -7.067000000     2.223000000
H    -2.268000000    -8.030000000     2.431000000
C    -3.736000000    -6.503000000     3.121000000
H    -4.085000000    -7.077000000     3.976000000
C    -4.134000000    -5.162000000     2.890000000
H    -4.831000000    -4.673000000     3.566000000
C    -3.686000000    -4.515000000     1.791000000
O    -4.521000000    -3.535000000     1.282000000
C    -4.303000000    -2.271000000     1.766000000
C    -5.417000000    -1.466000000     1.860000000
H    -6.343000000    -1.839000000     1.430000000
C    -5.380000000    -0.232000000     2.512000000
O    -6.415000000     0.592000000     2.477000000
C    -6.400000000     1.928000000     2.369000000
C    -5.969000000     2.494000000     1.162000000
H    -5.757000000     1.743000000     0.405000000
C    -6.854000000     2.811000000     3.340000000
H    -7.276000000     2.350000000     4.229000000
C    -6.945000000     4.193000000     3.051000000
H    -7.238000000     4.783000000     3.915000000
C    -6.518000000     4.766000000     1.832000000
H    -6.556000000     5.840000000     1.668000000
C    -6.109000000     3.890000000     0.785000000
O    -5.643000000     4.365000000    -0.390000000
C    -4.401000000     4.042000000    -0.852000000
C    -4.260000000     3.490000000    -2.122000000
H    -5.125000000     3.413000000    -2.774000000
C    -3.029000000     3.188000000    -2.581000000
O    -2.919000000     2.736000000    -3.947000000
C    -1.884000000     3.234000000    -4.725000000
C    -0.937000000     2.372000000    -5.285000000
H    -0.970000000     1.326000000    -4.991000000
C    -1.842000000     4.601000000    -5.101000000
H    -2.625000000     5.276000000    -4.765000000
C    -0.904000000     5.123000000    -5.933000000
H    -0.815000000     6.177000000    -6.185000000
C     0.037000000     4.220000000    -6.498000000
H     0.644000000     4.700000000    -7.260000000
C     0.058000000     2.906000000    -6.086000000
O     1.044000000     2.092000000    -6.614000000
C     1.650000000     1.124000000    -5.869000000
C     1.528000000    -0.196000000    -6.267000000
H     0.924000000    -0.439000000    -7.138000000
C     2.223000000    -1.194000000    -5.584000000
O     2.176000000    -2.450000000    -6.021000000
C     2.806000000    -3.441000000    -5.341000000
C     4.103000000    -3.813000000    -5.756000000
H     4.720000000    -3.135000000    -6.339000000
C     4.742000000    -4.836000000    -5.027000000
H     5.801000000    -4.946000000    -5.249000000
C     4.080000000    -5.610000000    -4.044000000
H     4.687000000    -6.367000000    -3.553000000
C     2.803000000    -5.311000000    -3.680000000
C     2.196000000    -4.224000000    -4.372000000
H     1.199000000    -3.973000000    -4.017000000
C    -0.949000000    -1.971000000    -1.103000000
H    -0.849000000    -2.872000000    -1.702000000
C     0.105000000    -1.283000000    -0.480000000
H     1.142000000    -1.602000000    -0.553000000
C    -0.177000000    -0.129000000     0.331000000
C     0.911000000     0.514000000     1.099000000
H     1.322000000    -0.241000000     1.773000000
H     1.714000000     0.949000000     0.501000000
H     0.437000000     1.346000000     1.624000000
C    -1.521000000     0.392000000     0.282000000
H    -1.875000000     1.314000000     0.736000000
C    -2.550000000    -0.296000000    -0.442000000
H    -3.551000000     0.123000000    -0.367000000
C    -2.244000000    -1.442000000    -1.100000000
C    -3.400000000    -2.146000000    -1.805000000
O    -4.346000000    -1.605000000    -2.254000000
O    -3.143000000    -3.284000000    -2.152000000
O    -3.723000000    -5.094000000    -4.924000000
H    -4.028000000    -4.234000000    -5.213000000
H    -2.849000000    -4.932000000    -4.569000000
O    -3.595000000    -7.480000000    -1.863000000
H    -2.842000000    -7.069000000    -1.439000000
H    -4.068000000    -6.753000000    -2.267000000
O    -9.219000000    -1.122000000     0.120000000
H    -8.366000000    -0.760000000    -0.121000000
H    -9.159000000    -1.270000000     1.064000000
O    -8.295000000    -1.619000000    -3.355000000
H    -8.703000000    -2.484000000    -3.328000000
H    -8.712000000    -1.181000000    -4.097000000
O    -2.202000000    -0.835000000    -7.054000000
H    -2.569000000    -0.298000000    -6.352000000
H    -1.981000000    -0.210000000    -7.744000000
O    -7.550000000     1.929000000    -2.809000000
H    -7.152000000     1.583000000    -2.010000000
H    -6.971000000     1.634000000    -3.512000000
O    -5.410000000    -4.388000000    -1.455000000
H    -5.413000000    -3.661000000    -0.833000000
H    -4.585000000    -4.294000000    -1.931000000
O     0.067000000    -7.210000000    -4.921000000
H     0.884000000    -7.234000000    -4.424000000
H    -0.414000000    -6.468000000    -4.556000000
O    -7.577000000    -3.980000000    -6.813000000
H    -6.654000000    -3.831000000    -6.604000000
H    -7.618000000    -3.922000000    -7.767000000
O    -4.835000000    -2.848000000    -6.941000000
H    -5.047000000    -2.347000000    -6.154000000
H    -5.058000000    -2.262000000    -7.665000000
O    -5.695000000    -2.198000000    -4.477000000
H    -5.283000000    -1.912000000    -3.662000000
H    -6.600000000    -1.892000000    -4.407000000
O    -0.801000000    -2.940000000    -5.517000000
H    -1.136000000    -3.557000000    -6.168000000
H    -1.179000000    -2.098000000    -5.768000000
O    -5.218000000    -7.376000000    -5.143000000
H    -5.737000000    -7.418000000    -4.339000000
H    -4.808000000    -6.512000000    -5.119000000
O    -8.747000000    -4.668000000     0.064000000
H    -8.180000000    -5.427000000     0.199000000
H    -8.569000000    -4.393000000    -0.835000000
O    -8.155000000    -4.381000000    -2.775000000
H    -7.207000000    -4.252000000    -2.725000000
H    -8.269000000    -5.331000000    -2.744000000
O    -6.774000000    -0.904000000    -1.099000000
H    -5.923000000    -1.002000000    -1.527000000
H    -7.405000000    -1.220000000    -1.745000000
O    -1.271000000    -4.752000000    -3.515000000
H    -1.937000000    -4.298000000    -2.999000000
H    -1.133000000    -4.189000000    -4.277000000
O    -5.645000000     0.683000000    -4.159000000
H    -5.038000000     0.344000000    -3.501000000
H    -5.116000000     0.768000000    -4.952000000
O    -6.533000000    -6.491000000     0.009000000
H    -6.383000000    -5.647000000    -0.416000000
H    -6.084000000    -7.125000000    -0.550000000
