218
-1442.33701
C    -4.058000000     0.134000000     2.367000000
H    -3.994000000     1.210000000     2.227000000
C    -3.198000000    -0.533000000     3.212000000
C    -3.330000000    -1.891000000     3.358000000
H    -2.638000000    -2.573000000     3.845000000
C    -1.905000000     0.195000000     3.757000000
O    -2.256000000     1.497000000     4.248000000
H    -1.174000000     0.375000000     2.956000000
O    -1.265000000    -0.554000000     4.825000000
C     0.062000000    -0.685000000     4.520000000
C     0.487000000    -1.793000000     3.733000000
H    -0.226000000    -2.512000000     3.337000000
C     1.840000000    -2.081000000     3.582000000
O     2.183000000    -3.206000000     2.924000000
C     2.716000000    -1.014000000     3.826000000
C     4.229000000    -1.286000000     3.591000000
H     4.852000000    -0.681000000     4.252000000
C     4.569000000    -0.984000000     2.073000000
C     4.808000000     0.345000000     1.690000000
H     4.967000000     1.098000000     2.456000000
H     4.478000000    -2.279000000     3.973000000
C     2.305000000     0.201000000     4.427000000
H     3.020000000     0.983000000     4.669000000
C     0.956000000     0.375000000     4.839000000
C     0.497000000     1.629000000     5.458000000
H     1.371000000     1.971000000     6.016000000
H    -0.226000000     1.525000000     6.270000000
C    -0.091000000     2.626000000     4.446000000
C     0.844000000     3.453000000     3.891000000
H     1.818000000     3.542000000     4.365000000
C    -1.397000000     2.499000000     3.899000000
C    -1.801000000     3.347000000     2.903000000
H    -2.743000000     3.167000000     2.392000000
C    -0.864000000     4.197000000     2.298000000
O    -1.185000000     4.810000000     1.144000000
C    -0.895000000     4.258000000    -0.140000000
C    -2.140000000     4.457000000    -1.042000000
C    -1.981000000     4.587000000    -2.435000000
H    -1.006000000     4.625000000    -2.914000000
C    -3.461000000     4.402000000    -0.585000000
H    -3.604000000     4.332000000     0.490000000
O     0.280000000     4.902000000    -0.656000000
H    -0.636000000     3.192000000    -0.058000000
C     0.484000000     4.187000000     2.696000000
C     1.615000000     4.943000000     1.970000000
H     2.406000000     5.017000000     2.719000000
H     1.157000000     5.906000000     1.734000000
C     2.132000000     4.186000000     0.694000000
C     3.331000000     3.502000000     0.802000000
H     3.857000000     3.591000000     1.749000000
C     1.473000000     4.261000000    -0.570000000
C     2.063000000     3.586000000    -1.657000000
H     1.590000000     3.713000000    -2.627000000
C     3.188000000     2.836000000    -1.574000000
O     3.534000000     2.097000000    -2.607000000
C     3.392000000     0.708000000    -2.366000000
C     2.570000000     0.078000000    -3.567000000
C     1.492000000     0.800000000    -4.068000000
H     1.341000000     1.829000000    -3.753000000
C     2.828000000    -1.253000000    -3.956000000
H     3.631000000    -1.867000000    -3.558000000
O     4.659000000     0.086000000    -2.027000000
H     2.730000000     0.556000000    -1.501000000
C     3.902000000     2.839000000    -0.386000000
C     5.190000000     2.111000000    -0.142000000
H     5.783000000     2.679000000     0.578000000
H     5.833000000     2.148000000    -1.024000000
C     4.952000000     0.694000000     0.320000000
C     4.774000000    -0.311000000    -0.691000000
C     4.572000000    -1.657000000    -0.304000000
H     4.358000000    -2.494000000    -0.964000000
C     4.510000000    -1.990000000     1.037000000
O     3.906000000    -3.193000000     1.356000000
C     2.473000000    -3.190000000     1.472000000
H     2.184000000    -2.168000000     1.184000000
C     1.790000000    -4.337000000     0.702000000
C     0.505000000    -4.905000000     1.078000000
H    -0.071000000    -4.390000000     1.842000000
C     2.454000000    -4.856000000    -0.440000000
H     3.428000000    -4.435000000    -0.678000000
C     1.940000000    -5.930000000    -1.181000000
O     2.630000000    -6.489000000    -2.205000000
C     0.751000000    -6.496000000    -0.739000000
H     0.295000000    -7.346000000    -1.241000000
C    -0.037000000    -5.944000000     0.290000000
O    -1.246000000    -6.533000000     0.571000000
C    -1.987000000    -6.193000000     1.693000000
C    -2.896000000    -5.182000000     1.691000000
H    -3.079000000    -4.586000000     0.801000000
C    -1.906000000    -6.991000000     2.840000000
H    -1.232000000    -7.842000000     2.902000000
C    -2.703000000    -6.755000000     3.956000000
H    -2.601000000    -7.342000000     4.865000000
C    -3.583000000    -5.748000000     3.944000000
H    -4.308000000    -5.589000000     4.738000000
C    -3.688000000    -4.929000000     2.800000000
O    -4.644000000    -3.888000000     2.841000000
C    -4.441000000    -2.553000000     2.740000000
C    -5.373000000    -1.838000000     2.048000000
H    -6.266000000    -2.362000000     1.718000000
C    -5.141000000    -0.509000000     1.804000000
O    -5.949000000     0.164000000     0.948000000
C    -6.263000000     1.534000000     0.960000000
C    -5.844000000     2.329000000    -0.035000000
H    -5.276000000     1.890000000    -0.851000000
C    -7.034000000     2.104000000     2.032000000
H    -7.520000000     1.396000000     2.699000000
C    -7.488000000     3.426000000     1.990000000
H    -8.048000000     3.795000000     2.845000000
C    -7.044000000     4.249000000     1.008000000
H    -7.423000000     5.255000000     0.848000000
C    -6.197000000     3.680000000     0.012000000
O    -5.844000000     4.492000000    -1.013000000
C    -4.563000000     4.601000000    -1.427000000
C    -4.317000000     4.864000000    -2.802000000
H    -5.160000000     5.071000000    -3.456000000
C    -3.031000000     4.740000000    -3.317000000
O    -2.753000000     4.985000000    -4.662000000
C    -1.735000000     4.310000000    -5.270000000
C    -1.587000000     2.926000000    -4.956000000
H    -2.321000000     2.425000000    -4.329000000
C    -0.862000000     4.972000000    -6.154000000
H    -1.191000000     5.975000000    -6.414000000
C     0.150000000     4.278000000    -6.698000000
H     0.797000000     4.779000000    -7.413000000
C     0.341000000     2.896000000    -6.423000000
H     1.255000000     2.413000000    -6.758000000
C    -0.543000000     2.231000000    -5.538000000
O    -0.469000000     0.876000000    -5.370000000
C     0.685000000     0.226000000    -5.038000000
C     0.902000000    -1.032000000    -5.457000000
H     0.226000000    -1.606000000    -6.086000000
C     1.912000000    -1.836000000    -4.833000000
O     2.270000000    -3.006000000    -5.419000000
C     3.032000000    -3.960000000    -4.834000000
C     4.323000000    -4.317000000    -5.412000000
H     4.687000000    -3.683000000    -6.217000000
C     4.909000000    -5.530000000    -4.931000000
H     5.805000000    -5.859000000    -5.451000000
C     4.322000000    -6.258000000    -3.855000000
H     4.878000000    -7.125000000    -3.507000000
C     3.186000000    -5.785000000    -3.211000000
C     2.534000000    -4.608000000    -3.718000000
H     1.576000000    -4.340000000    -3.281000000
C    -0.319000000    -2.269000000    -1.756000000
H    -0.008000000    -3.016000000    -2.481000000
C     0.527000000    -1.449000000    -0.949000000
H     1.571000000    -1.749000000    -0.948000000
C    -0.016000000    -0.338000000    -0.227000000
C     0.748000000     0.663000000     0.622000000
H     1.785000000     0.319000000     0.639000000
H     0.715000000     1.655000000     0.168000000
H     0.386000000     0.670000000     1.652000000
C    -1.394000000    -0.206000000    -0.089000000
H    -1.778000000     0.621000000     0.503000000
C    -2.230000000    -1.135000000    -0.774000000
H    -3.308000000    -1.008000000    -0.717000000
C    -1.710000000    -2.088000000    -1.629000000
C    -2.621000000    -3.154000000    -2.256000000
O    -3.803000000    -3.038000000    -2.271000000
O    -2.121000000    -4.117000000    -2.775000000
O    -5.541000000    -8.712000000    -1.900000000
H    -6.255000000    -8.445000000    -1.320000000
H    -5.181000000    -7.889000000    -2.230000000
O    -2.691000000    -7.945000000    -2.886000000
H    -2.442000000    -7.021000000    -2.860000000
H    -2.544000000    -8.258000000    -1.994000000
O    -7.311000000    -0.170000000    -1.875000000
H    -6.628000000     0.049000000    -1.241000000
H    -7.047000000    -1.019000000    -2.228000000
O    -5.748000000    -3.897000000    -4.786000000
H    -6.304000000    -4.192000000    -5.507000000
H    -4.867000000    -4.177000000    -5.033000000
O    -5.409000000    -4.154000000    -7.731000000
H    -4.942000000    -4.772000000    -8.294000000
H    -4.718000000    -3.699000000    -7.249000000
O    -2.819000000    -0.512000000    -6.093000000
H    -3.570000000    -0.861000000    -5.613000000
H    -2.195000000    -0.262000000    -5.411000000
O    -4.677000000    -5.695000000    -1.825000000
H    -5.051000000    -5.627000000    -2.704000000
H    -4.050000000    -4.973000000    -1.776000000
O     1.074000000    -7.463000000    -4.510000000
H     1.859000000    -6.956000000    -4.717000000
H     0.391000000    -6.805000000    -4.382000000
O    -1.572000000    -5.342000000    -7.580000000
H    -1.672000000    -4.865000000    -6.756000000
H    -2.185000000    -4.917000000    -8.179000000
O    -2.233000000    -3.264000000    -5.593000000
H    -2.355000000    -3.214000000    -4.644000000
H    -2.032000000    -2.365000000    -5.856000000
O    -4.231000000    -6.689000000    -6.320000000
H    -3.942000000    -6.271000000    -7.131000000
H    -3.838000000    -7.561000000    -6.347000000
O    -4.964000000     1.336000000    -3.472000000
H    -4.615000000     0.494000000    -3.766000000
H    -4.907000000     1.901000000    -4.242000000
O    -7.850000000    -3.901000000     0.254000000
H    -8.503000000    -3.217000000     0.109000000
H    -7.347000000    -3.930000000    -0.560000000
O    -6.206000000    -7.303000000    -4.777000000
H    -5.541000000    -6.758000000    -5.197000000
H    -5.729000000    -8.077000000    -4.479000000
O    -2.098000000    -9.208000000    -0.619000000
H    -1.617000000   -10.036000000    -0.616000000
H    -1.680000000    -8.686000000     0.066000000
O    -6.376000000    -2.869000000    -2.090000000
H    -5.441000000    -2.847000000    -1.884000000
H    -6.429000000    -3.364000000    -2.907000000
O    -0.943000000    -5.836000000    -4.405000000
H    -1.286000000    -5.218000000    -3.760000000
H    -1.568000000    -5.798000000    -5.129000000
O    -4.606000000    -1.316000000    -4.128000000
H    -4.303000000    -1.997000000    -3.527000000
H    -5.386000000    -1.689000000    -4.538000000
O    -6.221000000    -6.206000000     0.263000000
H    -6.601000000    -5.334000000     0.360000000
H    -5.572000000    -6.108000000    -0.435000000
