218
-1430.19891
C    -3.080000000     0.901000000     4.650000000
H    -2.787000000     1.946000000     4.593000000
C    -2.109000000    -0.041000000     4.608000000
C    -2.442000000    -1.325000000     4.421000000
H    -1.628000000    -2.016000000     4.215000000
C    -0.597000000     0.248000000     4.295000000
O    -0.239000000     1.546000000     4.824000000
H    -0.532000000     0.410000000     3.209000000
O     0.273000000    -0.764000000     4.810000000
C     1.463000000    -1.106000000     4.230000000
C     1.642000000    -2.382000000     3.697000000
H     0.804000000    -3.074000000     3.701000000
C     2.684000000    -2.815000000     2.928000000
O     2.500000000    -3.904000000     2.141000000
C     3.698000000    -1.854000000     2.750000000
C     4.825000000    -2.087000000     1.814000000
H     5.660000000    -1.444000000     2.099000000
C     4.600000000    -1.749000000     0.347000000
C     4.982000000    -0.472000000    -0.131000000
H     5.680000000     0.146000000     0.426000000
H     5.128000000    -3.132000000     1.913000000
C     3.625000000    -0.611000000     3.468000000
H     4.337000000     0.158000000     3.182000000
C     2.516000000    -0.260000000     4.168000000
C     2.556000000     1.128000000     4.769000000
H     3.575000000     1.509000000     4.865000000
H     2.116000000     1.144000000     5.768000000
C     1.850000000     2.069000000     3.806000000
C     2.584000000     2.705000000     2.762000000
H     3.625000000     2.422000000     2.629000000
C     0.500000000     2.355000000     3.976000000
C    -0.139000000     3.348000000     3.252000000
H    -1.219000000     3.476000000     3.260000000
C     0.645000000     4.031000000     2.238000000
O    -0.057000000     4.760000000     1.292000000
C    -0.220000000     4.110000000    -0.051000000
C    -1.640000000     4.335000000    -0.548000000
C    -1.866000000     4.066000000    -1.918000000
H    -1.034000000     3.830000000    -2.576000000
C    -2.684000000     4.585000000     0.361000000
H    -2.436000000     4.859000000     1.384000000
O     0.784000000     4.751000000    -0.851000000
H     0.024000000     3.037000000    -0.031000000
C     2.008000000     3.737000000     2.054000000
C     2.813000000     4.614000000     1.146000000
H     3.724000000     4.929000000     1.660000000
H     2.283000000     5.565000000     1.054000000
C     3.043000000     3.947000000    -0.175000000
C     4.128000000     3.131000000    -0.492000000
H     4.846000000     2.953000000     0.304000000
C     2.005000000     4.107000000    -1.064000000
C     2.040000000     3.351000000    -2.254000000
H     1.213000000     3.509000000    -2.940000000
C     3.138000000     2.554000000    -2.642000000
O     2.898000000     1.720000000    -3.675000000
C     2.342000000     0.398000000    -3.509000000
C     1.395000000    -0.049000000    -4.616000000
C     0.785000000     0.860000000    -5.480000000
H     1.085000000     1.904000000    -5.521000000
C     0.900000000    -1.290000000    -4.532000000
H     1.356000000    -1.905000000    -3.760000000
O     3.414000000    -0.610000000    -3.457000000
H     1.763000000     0.406000000    -2.573000000
C     4.119000000     2.339000000    -1.672000000
C     5.144000000     1.209000000    -1.918000000
H     6.054000000     1.526000000    -1.404000000
H     5.518000000     1.197000000    -2.944000000
C     4.692000000    -0.135000000    -1.431000000
C     3.960000000    -0.955000000    -2.312000000
C     3.605000000    -2.201000000    -1.853000000
H     3.164000000    -2.974000000    -2.478000000
C     3.840000000    -2.543000000    -0.508000000
O     3.228000000    -3.628000000    -0.143000000
C     2.095000000    -3.586000000     0.754000000
H     1.524000000    -2.646000000     0.732000000
C     1.053000000    -4.644000000     0.379000000
C    -0.278000000    -4.755000000     0.932000000
H    -0.503000000    -4.180000000     1.827000000
C     1.239000000    -5.369000000    -0.787000000
H     2.145000000    -5.206000000    -1.366000000
C     0.249000000    -6.191000000    -1.352000000
O     0.615000000    -6.758000000    -2.599000000
C    -1.039000000    -6.336000000    -0.841000000
H    -1.791000000    -7.007000000    -1.247000000
C    -1.192000000    -5.712000000     0.449000000
O    -2.383000000    -5.852000000     1.200000000
C    -2.399000000    -5.525000000     2.500000000
C    -3.188000000    -4.452000000     2.929000000
H    -3.668000000    -3.793000000     2.210000000
C    -1.749000000    -6.295000000     3.462000000
H    -1.244000000    -7.192000000     3.114000000
C    -1.975000000    -5.973000000     4.839000000
H    -1.628000000    -6.616000000     5.644000000
C    -2.768000000    -4.864000000     5.179000000
H    -2.870000000    -4.627000000     6.234000000
C    -3.399000000    -4.153000000     4.246000000
O    -4.183000000    -3.032000000     4.572000000
C    -3.798000000    -1.723000000     4.519000000
C    -4.782000000    -0.780000000     4.574000000
H    -5.804000000    -1.149000000     4.609000000
C    -4.431000000     0.566000000     4.575000000
O    -5.444000000     1.586000000     4.572000000
C    -5.239000000     2.888000000     4.073000000
C    -5.064000000     3.014000000     2.711000000
H    -5.035000000     2.155000000     2.045000000
C    -5.225000000     4.013000000     4.910000000
H    -5.421000000     4.060000000     5.978000000
C    -5.054000000     5.241000000     4.360000000
H    -5.012000000     6.081000000     5.048000000
C    -4.949000000     5.440000000     2.950000000
H    -4.927000000     6.466000000     2.592000000
C    -4.993000000     4.304000000     2.082000000
O    -5.058000000     4.415000000     0.751000000
C    -3.989000000     4.456000000    -0.107000000
C    -4.291000000     4.270000000    -1.494000000
H    -5.297000000     4.153000000    -1.889000000
C    -3.163000000     4.034000000    -2.360000000
O    -3.466000000     3.718000000    -3.628000000
C    -2.585000000     3.770000000    -4.685000000
C    -2.005000000     2.589000000    -5.139000000
H    -2.289000000     1.652000000    -4.667000000
C    -2.386000000     4.975000000    -5.371000000
H    -2.815000000     5.877000000    -4.942000000
C    -1.461000000     4.994000000    -6.468000000
H    -1.119000000     5.867000000    -7.017000000
C    -0.960000000     3.752000000    -6.937000000
H    -0.419000000     3.787000000    -7.879000000
C    -1.360000000     2.541000000    -6.328000000
O    -0.964000000     1.313000000    -6.924000000
C    -0.137000000     0.368000000    -6.368000000
C    -0.694000000    -0.865000000    -6.281000000
H    -1.542000000    -1.159000000    -6.894000000
C    -0.108000000    -1.768000000    -5.403000000
O    -0.571000000    -3.019000000    -5.401000000
C     0.174000000    -4.131000000    -5.141000000
C     1.048000000    -4.595000000    -6.151000000
H     1.079000000    -4.085000000    -7.110000000
C     1.784000000    -5.752000000    -5.874000000
H     2.560000000    -6.079000000    -6.561000000
C     1.647000000    -6.458000000    -4.662000000
H     2.166000000    -7.400000000    -4.505000000
C     0.764000000    -5.967000000    -3.695000000
C     0.069000000    -4.794000000    -3.913000000
H    -0.569000000    -4.375000000    -3.139000000
C    -2.135000000    -2.549000000    -0.971000000
H    -2.156000000    -3.433000000    -1.604000000
C    -1.020000000    -1.679000000    -1.030000000
H    -0.189000000    -1.886000000    -1.700000000
C    -1.031000000    -0.508000000    -0.269000000
C     0.210000000     0.377000000    -0.330000000
H    -0.020000000     1.138000000    -1.079000000
H     0.342000000     0.907000000     0.616000000
H     1.111000000    -0.165000000    -0.623000000
C    -2.037000000    -0.229000000     0.598000000
H    -2.082000000     0.743000000     1.082000000
C    -3.170000000    -1.124000000     0.638000000
H    -4.028000000    -0.826000000     1.236000000
C    -3.212000000    -2.277000000    -0.151000000
C    -4.370000000    -3.281000000    -0.149000000
O    -5.340000000    -3.130000000     0.615000000
O    -4.607000000    -3.935000000    -1.169000000
O    -7.928000000    -6.265000000     1.862000000
H    -7.040000000    -6.468000000     1.568000000
H    -7.820000000    -5.969000000     2.766000000
O    -6.418000000    -2.114000000    -2.123000000
H    -5.889000000    -2.824000000    -1.758000000
H    -7.307000000    -2.467000000    -2.150000000
O    -7.786000000    -4.100000000     0.071000000
H    -6.873000000    -3.842000000     0.202000000
H    -7.978000000    -4.681000000     0.807000000
O    -4.261000000    -8.595000000     2.190000000
H    -4.823000000    -9.183000000     2.694000000
H    -3.819000000    -8.062000000     2.852000000
O    -7.627000000    -3.428000000    -5.459000000
H    -7.600000000    -4.010000000    -4.699000000
H    -6.740000000    -3.459000000    -5.817000000
O    -9.973000000    -1.361000000     0.462000000
H    -9.977000000    -2.301000000     0.282000000
H   -10.890000000    -1.147000000     0.636000000
O    -6.897000000    -0.208000000    -0.227000000
H    -6.794000000    -0.766000000    -0.998000000
H    -6.989000000    -0.822000000     0.502000000
O    -4.170000000    -6.170000000    -2.824000000
H    -4.230000000    -5.482000000    -2.161000000
H    -4.718000000    -5.859000000    -3.544000000
O    -6.954000000    -1.839000000     2.337000000
H    -6.344000000    -2.293000000     1.755000000
H    -7.181000000    -2.489000000     3.001000000
O    -5.415000000    -6.647000000     0.478000000
H    -5.359000000    -5.783000000     0.069000000
H    -4.506000000    -6.882000000     0.667000000
O    -5.157000000    -4.007000000    -5.841000000
H    -4.428000000    -3.448000000    -5.572000000
H    -4.741000000    -4.816000000    -6.139000000
O    -8.233000000    -4.768000000    -2.547000000
H    -8.091000000    -4.647000000    -1.609000000
H    -8.042000000    -5.693000000    -2.701000000
O    -5.548000000     1.542000000    -2.904000000
H    -5.039000000     0.742000000    -2.773000000
H    -5.427000000     1.754000000    -3.830000000
O    -3.940000000    -0.876000000    -2.700000000
H    -3.366000000    -0.792000000    -1.939000000
H    -4.623000000    -1.484000000    -2.418000000
O    -3.543000000    -1.886000000    -5.151000000
H    -2.643000000    -2.207000000    -5.084000000
H    -3.713000000    -1.472000000    -4.304000000
O    -7.265000000     2.358000000    -1.178000000
H    -6.738000000     2.300000000    -1.975000000
H    -7.211000000     1.484000000    -0.791000000
O    -5.654000000    -8.731000000    -1.309000000
H    -6.343000000    -9.157000000    -0.799000000
H    -5.433000000    -7.948000000    -0.805000000
O    -3.451000000    -8.946000000    -2.662000000
H    -4.302000000    -8.955000000    -2.223000000
H    -3.322000000    -8.033000000    -2.916000000
O    -7.953000000    -3.737000000     4.051000000
H    -8.700000000    -4.214000000     4.413000000
H    -7.661000000    -3.171000000     4.765000000
