218
-1501.69584
C    -3.159000000     0.515000000     4.469000000
H    -2.985000000     1.588000000     4.466000000
C    -2.126000000    -0.420000000     4.466000000
C    -2.389000000    -1.777000000     4.376000000
H    -1.655000000    -2.575000000     4.297000000
C    -0.695000000     0.076000000     4.273000000
O    -0.569000000     1.460000000     4.595000000
H    -0.469000000    -0.040000000     3.203000000
O     0.251000000    -0.674000000     5.006000000
C     1.406000000    -0.853000000     4.315000000
C     1.560000000    -2.075000000     3.675000000
H     0.737000000    -2.785000000     3.671000000
C     2.702000000    -2.409000000     2.927000000
O     2.619000000    -3.473000000     2.112000000
C     3.736000000    -1.446000000     2.773000000
C     4.930000000    -1.687000000     1.852000000
H     5.801000000    -1.098000000     2.143000000
C     4.673000000    -1.353000000     0.336000000
C     5.105000000    -0.075000000    -0.167000000
H     5.647000000     0.614000000     0.476000000
H     5.172000000    -2.752000000     1.868000000
C     3.582000000    -0.190000000     3.419000000
H     4.353000000     0.569000000     3.307000000
C     2.445000000     0.128000000     4.232000000
C     2.299000000     1.486000000     4.989000000
H     3.345000000     1.784000000     5.087000000
H     1.835000000     1.358000000     5.970000000
C     1.553000000     2.395000000     4.014000000
C     2.281000000     3.180000000     3.132000000
H     3.362000000     3.175000000     3.246000000
C     0.178000000     2.294000000     3.830000000
C    -0.507000000     3.135000000     2.988000000
H    -1.587000000     3.214000000     2.895000000
C     0.243000000     3.973000000     2.117000000
O    -0.487000000     4.639000000     1.152000000
C    -0.639000000     3.935000000    -0.080000000
C    -2.074000000     3.914000000    -0.507000000
C    -2.359000000     3.431000000    -1.758000000
H    -1.554000000     2.924000000    -2.286000000
C    -3.154000000     4.137000000     0.329000000
H    -2.991000000     4.453000000     1.356000000
O     0.254000000     4.561000000    -1.064000000
H    -0.341000000     2.892000000     0.101000000
C     1.633000000     4.014000000     2.194000000
C     2.414000000     4.754000000     1.162000000
H     3.411000000     4.998000000     1.535000000
H     2.029000000     5.775000000     1.122000000
C     2.568000000     3.999000000    -0.218000000
C     3.720000000     3.306000000    -0.507000000
H     4.498000000     3.276000000     0.252000000
C     1.506000000     4.002000000    -1.171000000
C     1.759000000     3.428000000    -2.419000000
H     0.965000000     3.327000000    -3.154000000
C     2.898000000     2.689000000    -2.649000000
O     3.047000000     2.040000000    -3.837000000
C     2.697000000     0.658000000    -3.709000000
C     1.692000000     0.201000000    -4.764000000
C     0.862000000     1.092000000    -5.454000000
H     0.938000000     2.132000000    -5.147000000
C     1.641000000    -1.149000000    -5.102000000
H     2.225000000    -1.947000000    -4.650000000
O     3.847000000    -0.207000000    -3.603000000
H     2.232000000     0.523000000    -2.721000000
C     3.851000000     2.582000000    -1.669000000
C     5.147000000     1.759000000    -1.828000000
H     5.830000000     2.207000000    -1.103000000
H     5.606000000     1.858000000    -2.814000000
C     4.874000000     0.319000000    -1.484000000
C     4.233000000    -0.564000000    -2.304000000
C     3.795000000    -1.816000000    -1.853000000
H     3.336000000    -2.403000000    -2.644000000
C     4.009000000    -2.196000000    -0.527000000
O     3.466000000    -3.362000000    -0.036000000
C     2.267000000    -3.303000000     0.716000000
H     1.851000000    -2.308000000     0.498000000
C     1.320000000    -4.376000000     0.261000000
C     0.460000000    -4.914000000     1.197000000
H     0.528000000    -4.556000000     2.221000000
C     1.058000000    -4.550000000    -1.123000000
H     1.706000000    -4.006000000    -1.805000000
C     0.020000000    -5.308000000    -1.534000000
O    -0.208000000    -5.513000000    -2.866000000
C    -0.694000000    -5.960000000    -0.567000000
H    -1.451000000    -6.590000000    -1.027000000
C    -0.575000000    -5.801000000     0.768000000
O    -1.364000000    -6.594000000     1.609000000
C    -1.798000000    -6.073000000     2.804000000
C    -2.588000000    -4.946000000     2.794000000
H    -2.831000000    -4.507000000     1.829000000
C    -1.716000000    -6.833000000     3.945000000
H    -1.244000000    -7.808000000     4.035000000
C    -2.298000000    -6.422000000     5.184000000
H    -2.240000000    -7.053000000     6.067000000
C    -3.027000000    -5.264000000     5.182000000
H    -3.568000000    -4.952000000     6.071000000
C    -3.177000000    -4.524000000     3.985000000
O    -4.007000000    -3.456000000     3.972000000
C    -3.710000000    -2.170000000     4.237000000
C    -4.753000000    -1.244000000     4.203000000
H    -5.776000000    -1.589000000     4.080000000
C    -4.466000000     0.072000000     4.366000000
O    -5.493000000     0.946000000     4.403000000
C    -5.386000000     2.228000000     3.905000000
C    -5.508000000     2.479000000     2.520000000
H    -5.610000000     1.643000000     1.833000000
C    -5.180000000     3.273000000     4.798000000
H    -4.955000000     3.029000000     5.833000000
C    -5.158000000     4.603000000     4.294000000
H    -5.010000000     5.451000000     4.958000000
C    -5.336000000     4.868000000     2.927000000
H    -5.366000000     5.903000000     2.597000000
C    -5.529000000     3.828000000     2.059000000
O    -5.611000000     4.105000000     0.703000000
C    -4.499000000     3.913000000    -0.093000000
C    -4.771000000     3.583000000    -1.420000000
H    -5.774000000     3.400000000    -1.796000000
C    -3.653000000     3.347000000    -2.255000000
O    -3.874000000     2.895000000    -3.554000000
C    -2.968000000     3.165000000    -4.569000000
C    -2.306000000     2.181000000    -5.226000000
H    -2.491000000     1.152000000    -4.928000000
C    -2.790000000     4.489000000    -4.908000000
H    -3.438000000     5.253000000    -4.486000000
C    -1.970000000     4.826000000    -5.951000000
H    -1.841000000     5.827000000    -6.353000000
C    -1.262000000     3.854000000    -6.634000000
H    -0.618000000     4.232000000    -7.425000000
C    -1.459000000     2.521000000    -6.282000000
O    -0.778000000     1.588000000    -7.022000000
C     0.081000000     0.732000000    -6.538000000
C     0.018000000    -0.651000000    -6.830000000
H    -0.656000000    -0.939000000    -7.632000000
C     0.831000000    -1.537000000    -6.143000000
O     0.809000000    -2.853000000    -6.599000000
C     1.230000000    -3.888000000    -5.805000000
C     2.580000000    -4.247000000    -5.747000000
H     3.316000000    -3.717000000    -6.346000000
C     2.946000000    -5.236000000    -4.826000000
H     3.984000000    -5.544000000    -4.740000000
C     2.062000000    -5.698000000    -3.843000000
H     2.365000000    -6.404000000    -3.073000000
C     0.748000000    -5.234000000    -3.889000000
C     0.304000000    -4.345000000    -4.805000000
H    -0.707000000    -3.951000000    -4.734000000
C    -1.189000000    -2.224000000    -1.924000000
H    -1.196000000    -2.732000000    -2.886000000
C    -0.147000000    -1.232000000    -1.716000000
H     0.578000000    -1.004000000    -2.494000000
C    -0.140000000    -0.490000000    -0.547000000
C     0.986000000     0.378000000    -0.155000000
H     1.881000000    -0.191000000    -0.418000000
H     0.973000000     1.268000000    -0.787000000
H     0.966000000     0.680000000     0.894000000
C    -1.147000000    -0.651000000     0.364000000
H    -1.233000000     0.078000000     1.166000000
C    -2.121000000    -1.668000000     0.179000000
H    -2.951000000    -1.723000000     0.878000000
C    -2.179000000    -2.412000000    -1.009000000
C    -3.179000000    -3.490000000    -1.255000000
O    -3.909000000    -3.836000000    -0.328000000
O    -3.320000000    -3.947000000    -2.392000000
O    -7.398000000     0.176000000    -0.929000000
H    -7.432000000     0.305000000    -1.877000000
H    -6.464000000     0.128000000    -0.727000000
O    -2.450000000    -9.000000000     0.912000000
H    -2.085000000    -9.752000000     1.378000000
H    -1.869000000    -8.273000000     1.138000000
O    -6.168000000    -3.658000000    -1.732000000
H    -5.437000000    -3.622000000    -1.116000000
H    -6.872000000    -3.175000000    -1.297000000
O    -5.699000000    -1.816000000     1.175000000
H    -5.124000000    -2.484000000     0.801000000
H    -5.902000000    -1.237000000     0.441000000
O    -4.020000000    -7.234000000    -5.039000000
H    -3.131000000    -7.512000000    -5.262000000
H    -3.933000000    -6.822000000    -4.180000000
O    -1.889000000    -5.926000000    -6.983000000
H    -2.250000000    -5.303000000    -6.353000000
H    -1.538000000    -6.635000000    -6.445000000
O    -1.056000000    -7.677000000    -5.093000000
H    -0.237000000    -8.159000000    -4.975000000
H    -1.085000000    -7.070000000    -4.354000000
O    -3.979000000    -6.542000000    -2.449000000
H    -4.916000000    -6.656000000    -2.291000000
H    -3.836000000    -5.599000000    -2.373000000
O    -5.482000000    -0.075000000    -4.017000000
H    -5.250000000    -0.026000000    -4.945000000
H    -6.382000000     0.249000000    -3.978000000
O    -3.150000000    -2.782000000    -7.411000000
H    -3.043000000    -3.134000000    -6.527000000
H    -2.451000000    -3.194000000    -7.919000000
O    -5.092000000    -5.815000000     0.952000000
H    -4.622000000    -6.610000000     1.203000000
H    -4.455000000    -5.310000000     0.447000000
O    -8.394000000    -3.651000000     0.283000000
H    -8.980000000    -3.094000000     0.797000000
H    -8.584000000    -4.540000000     0.585000000
O    -4.675000000    -0.374000000    -1.275000000
H    -3.849000000     0.022000000    -0.998000000
H    -4.701000000    -0.236000000    -2.222000000
O    -5.347000000    -2.935000000    -4.194000000
H    -5.462000000    -3.377000000    -3.352000000
H    -5.111000000    -2.037000000    -3.963000000
O    -3.024000000    -4.268000000    -5.015000000
H    -3.034000000    -4.249000000    -4.058000000
H    -3.922000000    -4.055000000    -5.268000000
O    -6.999000000    -3.794000000    -5.917000000
H    -6.486000000    -4.538000000    -6.230000000
H    -6.440000000    -3.375000000    -5.262000000
O    -6.739000000    -6.413000000    -2.090000000
H    -6.754000000    -5.501000000    -1.801000000
H    -7.312000000    -6.431000000    -2.857000000
O    -2.219000000    -9.185000000    -1.711000000
H    -2.288000000    -9.252000000    -0.758000000
H    -2.968000000    -8.646000000    -1.967000000
O    -6.609000000    -4.452000000     2.647000000
H    -6.633000000    -3.585000000     2.242000000
H    -5.961000000    -4.937000000     2.135000000
