218
-1478.74709
C    -2.583000000     0.806000000     4.868000000
H    -2.581000000     1.889000000     4.780000000
C    -1.408000000     0.008000000     4.875000000
C    -1.586000000    -1.354000000     5.008000000
H    -0.657000000    -1.918000000     4.989000000
C    -0.065000000     0.521000000     4.345000000
O     0.064000000     1.937000000     4.722000000
H    -0.158000000     0.358000000     3.262000000
O     1.029000000    -0.247000000     4.834000000
C     2.160000000    -0.237000000     4.152000000
C     2.333000000    -1.499000000     3.578000000
H     1.781000000    -2.338000000     3.992000000
C     3.289000000    -1.682000000     2.615000000
O     3.279000000    -2.935000000     1.973000000
C     4.160000000    -0.653000000     2.256000000
C     5.291000000    -0.891000000     1.261000000
H     6.077000000    -0.198000000     1.569000000
C     4.797000000    -0.611000000    -0.122000000
C     4.941000000     0.684000000    -0.706000000
H     5.381000000     1.465000000    -0.091000000
H     5.705000000    -1.890000000     1.407000000
C     4.042000000     0.572000000     2.873000000
H     4.592000000     1.414000000     2.462000000
C     3.039000000     0.814000000     3.832000000
C     2.950000000     2.260000000     4.416000000
H     3.950000000     2.693000000     4.344000000
H     2.637000000     2.323000000     5.461000000
C     1.908000000     2.999000000     3.515000000
C     2.318000000     3.892000000     2.483000000
H     3.378000000     4.019000000     2.278000000
C     0.613000000     2.745000000     3.733000000
C    -0.381000000     3.366000000     2.966000000
H    -1.438000000     3.117000000     3.015000000
C    -0.013000000     4.218000000     1.901000000
O    -1.077000000     4.611000000     1.041000000
C    -1.158000000     3.957000000    -0.223000000
C    -2.593000000     3.685000000    -0.661000000
C    -2.926000000     3.708000000    -2.044000000
H    -2.205000000     3.884000000    -2.838000000
C    -3.498000000     3.503000000     0.339000000
H    -3.178000000     3.527000000     1.378000000
O    -0.409000000     4.710000000    -1.244000000
H    -0.640000000     2.990000000    -0.145000000
C     1.350000000     4.443000000     1.591000000
C     1.737000000     5.328000000     0.460000000
H     2.640000000     5.913000000     0.644000000
H     0.925000000     6.038000000     0.286000000
C     1.883000000     4.444000000    -0.797000000
C     3.108000000     3.871000000    -1.106000000
H     3.955000000     4.079000000    -0.458000000
C     0.780000000     4.280000000    -1.606000000
C     0.813000000     3.475000000    -2.761000000
H    -0.064000000     3.272000000    -3.370000000
C     2.024000000     2.845000000    -3.031000000
O     1.979000000     1.892000000    -4.049000000
C     1.930000000     0.504000000    -3.744000000
C     1.026000000    -0.233000000    -4.701000000
C    -0.235000000     0.268000000    -4.984000000
H    -0.511000000     1.196000000    -4.490000000
C     1.379000000    -1.597000000    -5.022000000
H     2.156000000    -2.172000000    -4.526000000
O     3.259000000    -0.006000000    -3.910000000
H     1.703000000     0.349000000    -2.679000000
C     3.187000000     3.014000000    -2.210000000
C     4.456000000     2.328000000    -2.616000000
H     5.328000000     2.852000000    -2.220000000
H     4.563000000     2.331000000    -3.703000000
C     4.502000000     0.894000000    -2.051000000
C     3.888000000    -0.224000000    -2.750000000
C     3.787000000    -1.491000000    -2.158000000
H     3.152000000    -2.254000000    -2.601000000
C     4.233000000    -1.683000000    -0.896000000
O     3.895000000    -2.921000000    -0.360000000
C     2.775000000    -2.980000000     0.598000000
H     2.251000000    -2.022000000     0.465000000
C     1.875000000    -4.188000000     0.367000000
C     0.957000000    -4.494000000     1.371000000
H     0.880000000    -3.893000000     2.273000000
C     1.749000000    -4.882000000    -0.892000000
H     2.441000000    -4.653000000    -1.699000000
C     0.698000000    -5.780000000    -1.093000000
O     0.537000000    -6.443000000    -2.313000000
C    -0.083000000    -6.175000000    -0.059000000
H    -0.773000000    -7.007000000    -0.170000000
C     0.040000000    -5.537000000     1.201000000
O    -0.884000000    -5.860000000     2.125000000
C    -0.826000000    -5.361000000     3.425000000
C    -1.828000000    -4.462000000     3.815000000
H    -2.605000000    -4.107000000     3.143000000
C     0.021000000    -5.965000000     4.342000000
H     0.712000000    -6.724000000     3.984000000
C    -0.085000000    -5.633000000     5.723000000
H     0.560000000    -6.058000000     6.487000000
C    -1.051000000    -4.650000000     6.112000000
H    -1.205000000    -4.380000000     7.154000000
C    -1.914000000    -4.083000000     5.177000000
O    -2.921000000    -3.247000000     5.528000000
C    -2.828000000    -1.895000000     5.244000000
C    -3.958000000    -1.092000000     5.327000000
H    -4.891000000    -1.589000000     5.576000000
C    -3.840000000     0.263000000     5.071000000
O    -4.947000000     0.960000000     5.056000000
C    -5.171000000     2.085000000     4.314000000
C    -5.372000000     1.973000000     2.961000000
H    -5.394000000     0.999000000     2.480000000
C    -5.125000000     3.303000000     4.993000000
H    -5.072000000     3.368000000     6.077000000
C    -5.357000000     4.470000000     4.208000000
H    -5.318000000     5.429000000     4.717000000
C    -5.623000000     4.403000000     2.839000000
H    -5.702000000     5.314000000     2.251000000
C    -5.547000000     3.172000000     2.250000000
O    -5.777000000     3.118000000     0.887000000
C    -4.770000000     3.207000000    -0.042000000
C    -5.113000000     3.176000000    -1.335000000
H    -6.161000000     3.043000000    -1.593000000
C    -4.221000000     3.389000000    -2.382000000
O    -4.723000000     3.425000000    -3.655000000
C    -4.011000000     2.948000000    -4.694000000
C    -3.604000000     1.598000000    -4.747000000
H    -3.851000000     0.949000000    -3.911000000
C    -3.883000000     3.751000000    -5.786000000
H    -4.442000000     4.683000000    -5.762000000
C    -3.217000000     3.366000000    -6.903000000
H    -3.157000000     3.945000000    -7.821000000
C    -2.638000000     2.080000000    -6.925000000
H    -2.116000000     1.712000000    -7.804000000
C    -2.859000000     1.187000000    -5.861000000
O    -2.423000000    -0.118000000    -5.837000000
C    -1.122000000    -0.479000000    -5.728000000
C    -0.831000000    -1.760000000    -6.078000000
H    -1.541000000    -2.264000000    -6.729000000
C     0.399000000    -2.310000000    -5.709000000
O     0.660000000    -3.572000000    -6.252000000
C     1.157000000    -4.606000000    -5.494000000
C     2.190000000    -5.430000000    -5.980000000
H     2.701000000    -5.183000000    -6.907000000
C     2.664000000    -6.537000000    -5.275000000
H     3.435000000    -7.206000000    -5.649000000
C     2.162000000    -6.780000000    -4.046000000
H     2.534000000    -7.634000000    -3.486000000
C     1.076000000    -6.079000000    -3.523000000
C     0.593000000    -5.001000000    -4.275000000
H    -0.204000000    -4.454000000    -3.779000000
C    -1.495000000    -2.633000000    -0.705000000
H    -1.451000000    -3.453000000    -1.418000000
C    -0.510000000    -1.640000000    -0.586000000
H     0.310000000    -1.708000000    -1.296000000
C    -0.578000000    -0.621000000     0.331000000
C     0.521000000     0.419000000     0.335000000
H     0.437000000     1.102000000     1.182000000
H     1.506000000    -0.050000000     0.312000000
H     0.417000000     1.019000000    -0.572000000
C    -1.691000000    -0.490000000     1.172000000
H    -1.751000000     0.364000000     1.842000000
C    -2.672000000    -1.444000000     1.087000000
H    -3.561000000    -1.421000000     1.712000000
C    -2.614000000    -2.440000000     0.172000000
C    -3.738000000    -3.427000000     0.132000000
O    -4.699000000    -3.321000000     0.807000000
O    -3.852000000    -4.329000000    -0.663000000
O    -4.219000000    -6.844000000    -1.194000000
H    -4.209000000    -5.947000000    -0.859000000
H    -5.002000000    -6.885000000    -1.744000000
O    -3.860000000    -8.094000000     1.014000000
H    -3.620000000    -7.688000000     0.181000000
H    -4.589000000    -7.564000000     1.338000000
O    -8.190000000    -3.638000000    -2.267000000
H    -8.202000000    -4.339000000    -2.918000000
H    -7.299000000    -3.289000000    -2.308000000
O    -4.661000000    -4.676000000    -5.867000000
H    -4.367000000    -3.765000000    -5.847000000
H    -4.829000000    -4.893000000    -4.950000000
O    -5.728000000    -2.312000000    -2.478000000
H    -5.250000000    -1.486000000    -2.554000000
H    -5.352000000    -2.736000000    -1.706000000
O    -6.569000000     0.339000000    -0.065000000
H    -7.390000000     0.397000000    -0.553000000
H    -6.534000000     1.150000000     0.442000000
O    -6.039000000    -6.796000000     2.108000000
H    -6.776000000    -6.787000000     1.497000000
H    -5.938000000    -5.883000000     2.376000000
O    -6.880000000    -1.885000000     1.583000000
H    -6.041000000    -2.321000000     1.432000000
H    -6.841000000    -1.097000000     1.041000000
O    -6.667000000    -5.080000000    -0.032000000
H    -5.982000000    -4.480000000     0.263000000
H    -7.140000000    -4.591000000    -0.705000000
O    -7.107000000    -7.267000000    -1.620000000
H    -7.165000000    -6.755000000    -0.813000000
H    -7.413000000    -8.139000000    -1.372000000
O    -2.198000000    -6.082000000    -3.905000000
H    -2.658000000    -5.249000000    -3.805000000
H    -1.578000000    -6.103000000    -3.176000000
O    -7.398000000    -2.845000000    -5.014000000
H    -6.592000000    -2.368000000    -4.820000000
H    -8.076000000    -2.380000000    -4.524000000
O    -7.571000000    -1.131000000     4.189000000
H    -8.064000000    -1.925000000     4.396000000
H    -7.169000000    -1.314000000     3.340000000
O    -7.974000000    -5.831000000    -3.994000000
H    -8.347000000    -6.591000000    -4.441000000
H    -7.535000000    -6.197000000    -3.226000000
O    -5.271000000    -4.513000000     3.079000000
H    -5.407000000    -3.797000000     3.700000000
H    -5.210000000    -4.083000000     2.226000000
O    -4.488000000    -1.980000000    -5.556000000
H    -3.703000000    -1.480000000    -5.332000000
H    -4.923000000    -1.453000000    -6.227000000
O    -3.609000000    -4.048000000    -3.221000000
H    -3.613000000    -4.138000000    -2.268000000
H    -3.988000000    -3.185000000    -3.383000000
O    -3.822000000    -0.453000000    -1.868000000
H    -2.964000000    -0.190000000    -1.535000000
H    -4.443000000     0.094000000    -1.388000000
O    -2.870000000    -8.349000000     3.550000000
H    -2.854000000    -7.461000000     3.906000000
H    -3.185000000    -8.241000000     2.652000000
