218
-1477.05310
C    -3.437000000     0.761000000     3.587000000
H    -3.494000000     1.785000000     3.227000000
C    -2.259000000     0.265000000     4.140000000
C    -2.221000000    -1.086000000     4.582000000
H    -1.251000000    -1.422000000     4.938000000
C    -0.971000000     1.139000000     3.931000000
O    -1.183000000     2.534000000     4.148000000
H    -0.614000000     1.038000000     2.895000000
O     0.081000000     0.612000000     4.721000000
C     1.358000000     0.466000000     4.249000000
C     1.799000000    -0.913000000     4.134000000
H     1.178000000    -1.735000000     4.482000000
C     3.014000000    -1.060000000     3.440000000
O     3.322000000    -2.391000000     3.032000000
C     3.817000000     0.053000000     3.133000000
C     5.172000000    -0.176000000     2.408000000
H     5.898000000     0.589000000     2.692000000
C     4.888000000    -0.219000000     0.907000000
C     4.702000000     0.975000000     0.157000000
H     4.887000000     1.890000000     0.714000000
H     5.660000000    -1.085000000     2.767000000
C     3.414000000     1.296000000     3.526000000
H     3.950000000     2.171000000     3.168000000
C     2.187000000     1.601000000     4.024000000
C     1.729000000     3.036000000     4.259000000
H     2.589000000     3.672000000     4.479000000
H     1.266000000     3.248000000     5.225000000
C     0.776000000     3.608000000     3.201000000
C     1.295000000     4.312000000     2.155000000
H     2.337000000     4.612000000     2.230000000
C    -0.580000000     3.292000000     3.164000000
C    -1.356000000     3.669000000     2.082000000
H    -2.371000000     3.284000000     2.140000000
C    -0.842000000     4.448000000     1.039000000
O    -1.637000000     4.705000000    -0.051000000
C    -1.512000000     3.788000000    -1.174000000
C    -2.923000000     3.515000000    -1.763000000
C    -3.094000000     3.208000000    -3.122000000
H    -2.218000000     3.092000000    -3.756000000
C    -4.068000000     3.598000000    -0.911000000
H    -3.916000000     3.753000000     0.154000000
O    -0.622000000     4.354000000    -2.124000000
H    -1.160000000     2.852000000    -0.714000000
C     0.522000000     4.805000000     1.092000000
C     1.192000000     5.472000000    -0.085000000
H     2.092000000     5.923000000     0.339000000
H     0.586000000     6.310000000    -0.436000000
C     1.581000000     4.528000000    -1.184000000
C     2.863000000     4.018000000    -1.200000000
H     3.503000000     4.340000000    -0.383000000
C     0.693000000     4.051000000    -2.193000000
C     1.078000000     3.103000000    -3.118000000
H     0.277000000     2.694000000    -3.728000000
C     2.343000000     2.549000000    -3.110000000
O     2.630000000     1.500000000    -3.933000000
C     2.498000000     0.168000000    -3.443000000
C     1.594000000    -0.751000000    -4.295000000
C     0.551000000    -0.171000000    -4.998000000
H     0.547000000     0.913000000    -5.089000000
C     1.778000000    -2.121000000    -4.204000000
H     2.585000000    -2.518000000    -3.593000000
O     3.835000000    -0.363000000    -3.193000000
H     1.998000000     0.193000000    -2.464000000
C     3.192000000     2.975000000    -2.107000000
C     4.541000000     2.272000000    -1.954000000
H     5.317000000     2.938000000    -1.571000000
H     4.931000000     2.000000000    -2.937000000
C     4.463000000     0.957000000    -1.225000000
C     4.253000000    -0.287000000    -1.875000000
C     4.257000000    -1.451000000    -1.097000000
H     4.108000000    -2.412000000    -1.582000000
C     4.603000000    -1.407000000     0.248000000
O     4.429000000    -2.599000000     0.937000000
C     3.184000000    -2.667000000     1.650000000
H     2.532000000    -1.933000000     1.155000000
C     2.602000000    -4.091000000     1.585000000
C     1.761000000    -4.543000000     2.565000000
H     1.512000000    -3.892000000     3.399000000
C     2.729000000    -4.759000000     0.395000000
H     3.261000000    -4.294000000    -0.431000000
C     2.122000000    -6.023000000     0.220000000
O     2.037000000    -6.713000000    -0.942000000
C     1.285000000    -6.434000000     1.240000000
H     0.645000000    -7.290000000     1.039000000
C     1.115000000    -5.787000000     2.444000000
O     0.204000000    -6.297000000     3.399000000
C    -0.401000000    -5.534000000     4.348000000
C    -1.405000000    -4.705000000     3.955000000
H    -1.538000000    -4.595000000     2.882000000
C    -0.104000000    -5.709000000     5.676000000
H     0.674000000    -6.382000000     6.027000000
C    -0.908000000    -5.068000000     6.635000000
H    -0.659000000    -5.174000000     7.688000000
C    -1.882000000    -4.157000000     6.270000000
H    -2.378000000    -3.555000000     7.026000000
C    -2.139000000    -4.037000000     4.923000000
O    -3.209000000    -3.262000000     4.571000000
C    -3.250000000    -1.910000000     4.293000000
C    -4.424000000    -1.374000000     3.739000000
H    -5.233000000    -2.083000000     3.579000000
C    -4.570000000    -0.078000000     3.377000000
O    -5.785000000     0.226000000     2.841000000
C    -6.074000000     1.474000000     2.467000000
C    -6.168000000     1.718000000     1.102000000
H    -6.007000000     0.917000000     0.384000000
C    -6.344000000     2.499000000     3.428000000
H    -6.240000000     2.193000000     4.466000000
C    -6.637000000     3.789000000     2.937000000
H    -7.037000000     4.499000000     3.656000000
C    -6.625000000     4.084000000     1.582000000
H    -6.813000000     5.115000000     1.293000000
C    -6.412000000     3.046000000     0.663000000
O    -6.484000000     3.354000000    -0.642000000
C    -5.373000000     3.375000000    -1.482000000
C    -5.532000000     3.072000000    -2.821000000
H    -6.538000000     2.916000000    -3.200000000
C    -4.423000000     2.930000000    -3.630000000
O    -4.676000000     2.645000000    -4.946000000
C    -3.584000000     2.316000000    -5.685000000
C    -3.040000000     1.063000000    -5.581000000
H    -3.507000000     0.335000000    -4.923000000
C    -3.123000000     3.221000000    -6.608000000
H    -3.494000000     4.242000000    -6.649000000
C    -2.129000000     2.783000000    -7.484000000
H    -1.703000000     3.432000000    -8.245000000
C    -1.538000000     1.516000000    -7.379000000
H    -0.765000000     1.177000000    -8.065000000
C    -1.920000000     0.679000000    -6.350000000
O    -1.416000000    -0.611000000    -6.339000000
C    -0.366000000    -1.093000000    -5.648000000
C    -0.047000000    -2.468000000    -5.704000000
H    -0.809000000    -3.095000000    -6.160000000
C     1.076000000    -2.953000000    -4.999000000
O     1.237000000    -4.292000000    -4.917000000
C     2.127000000    -4.973000000    -4.124000000
C     3.450000000    -5.161000000    -4.459000000
H     3.724000000    -4.676000000    -5.392000000
C     4.349000000    -5.835000000    -3.628000000
H     5.414000000    -5.887000000    -3.835000000
C     3.861000000    -6.270000000    -2.356000000
H     4.518000000    -6.873000000    -1.735000000
C     2.500000000    -6.155000000    -2.113000000
C     1.679000000    -5.423000000    -2.924000000
H     0.634000000    -5.229000000    -2.697000000
C    -2.652000000     0.062000000    -1.578000000
H    -3.100000000     0.396000000    -2.510000000
C    -1.326000000     0.339000000    -1.257000000
H    -0.628000000     0.816000000    -1.941000000
C    -0.809000000    -0.053000000    -0.001000000
C     0.614000000     0.209000000     0.260000000
H     0.924000000     1.215000000    -0.031000000
H     0.901000000     0.063000000     1.303000000
H     1.155000000    -0.531000000    -0.333000000
C    -1.609000000    -0.820000000     0.876000000
H    -1.157000000    -1.164000000     1.803000000
C    -2.875000000    -1.222000000     0.490000000
H    -3.481000000    -1.906000000     1.078000000
C    -3.368000000    -0.760000000    -0.698000000
C    -4.734000000    -1.214000000    -1.187000000
O    -5.696000000    -1.339000000    -0.437000000
O    -4.967000000    -1.177000000    -2.364000000
O    -4.125000000    -5.368000000     1.371000000
H    -4.664000000    -5.336000000     2.161000000
H    -4.754000000    -5.330000000     0.650000000
O    -8.506000000    -2.074000000    -4.689000000
H    -8.336000000    -1.967000000    -3.754000000
H    -9.267000000    -2.654000000    -4.730000000
O    -0.834000000    -3.149000000    -0.629000000
H    -1.368000000    -2.858000000    -1.369000000
H    -0.546000000    -2.339000000    -0.208000000
O    -9.360000000    -4.027000000    -2.603000000
H    -9.399000000    -4.509000000    -1.777000000
H    -8.914000000    -3.210000000    -2.383000000
O    -5.382000000    -2.119000000    -5.007000000
H    -5.887000000    -1.691000000    -5.698000000
H    -5.452000000    -1.526000000    -4.258000000
O    -4.856000000    -5.950000000    -1.937000000
H    -5.572000000    -6.234000000    -1.369000000
H    -5.140000000    -5.101000000    -2.275000000
O    -6.074000000    -3.896000000    -2.941000000
H    -6.289000000    -3.136000000    -2.400000000
H    -5.890000000    -3.530000000    -3.806000000
O   -10.211000000     0.428000000    -0.180000000
H    -9.388000000     0.253000000     0.275000000
H   -10.060000000     1.252000000    -0.641000000
O    -8.616000000    -0.425000000     1.752000000
H    -8.375000000    -1.256000000     1.343000000
H    -7.780000000    -0.023000000     1.988000000
O    -7.099000000    -2.989000000     1.240000000
H    -6.544000000    -2.426000000     0.701000000
H    -7.280000000    -3.748000000     0.686000000
O    -6.850000000    -5.668000000     0.418000000
H    -6.638000000    -6.274000000     1.128000000
H    -7.696000000    -5.972000000     0.089000000
O    -1.741000000    -5.599000000     0.262000000
H    -1.468000000    -4.728000000    -0.023000000
H    -2.574000000    -5.455000000     0.711000000
O    -6.903000000    -4.444000000    -5.828000000
H    -6.630000000    -3.591000000    -5.491000000
H    -6.899000000    -4.338000000    -6.779000000
O    -8.124000000    -1.559000000    -1.940000000
H    -8.353000000    -0.651000000    -2.138000000
H    -7.354000000    -1.494000000    -1.375000000
O    -7.589000000    -4.051000000     3.787000000
H    -7.642000000    -3.332000000     4.417000000
H    -7.864000000    -3.661000000     2.956000000
O    -2.101000000    -5.100000000    -3.659000000
H    -1.875000000    -4.194000000    -3.448000000
H    -2.888000000    -5.277000000    -3.144000000
O    -2.489000000    -2.460000000    -3.326000000
H    -2.484000000    -2.269000000    -4.264000000
H    -3.240000000    -1.973000000    -2.986000000
O    -8.756000000     0.372000000    -5.790000000
H    -8.473000000    -0.407000000    -5.312000000
H    -9.391000000     0.045000000    -6.427000000
O    -6.282000000    -0.555000000    -7.044000000
H    -7.083000000    -0.716000000    -7.544000000
H    -6.422000000     0.299000000    -6.636000000
