218
-1445.12461
C    -2.590000000     1.123000000     4.453000000
H    -2.550000000     2.193000000     4.263000000
C    -1.369000000     0.440000000     4.536000000
C    -1.433000000    -0.900000000     4.803000000
H    -0.551000000    -1.536000000     4.807000000
C    -0.137000000     1.115000000     4.168000000
O    -0.170000000     2.545000000     4.280000000
H     0.054000000     0.947000000     3.098000000
O     0.994000000     0.663000000     4.874000000
C     2.184000000     0.467000000     4.235000000
C     2.596000000    -0.852000000     4.025000000
H     1.927000000    -1.608000000     4.428000000
C     3.602000000    -1.138000000     3.127000000
O     3.764000000    -2.447000000     2.623000000
C     4.274000000    -0.072000000     2.514000000
C     5.275000000    -0.280000000     1.451000000
H     6.098000000     0.432000000     1.538000000
C     4.715000000    -0.349000000    -0.014000000
C     4.746000000     0.767000000    -0.794000000
H     5.135000000     1.704000000    -0.404000000
H     5.794000000    -1.222000000     1.641000000
C     3.996000000     1.250000000     2.944000000
H     4.526000000     2.027000000     2.400000000
C     2.934000000     1.564000000     3.810000000
C     2.628000000     3.038000000     4.110000000
H     3.530000000     3.643000000     4.003000000
H     2.149000000     3.183000000     5.080000000
C     1.626000000     3.500000000     3.057000000
C     1.978000000     4.178000000     1.923000000
H     3.055000000     4.267000000     1.810000000
C     0.274000000     3.298000000     3.268000000
C    -0.606000000     3.644000000     2.330000000
H    -1.630000000     3.281000000     2.375000000
C    -0.259000000     4.317000000     1.222000000
O    -1.134000000     4.661000000     0.249000000
C    -1.350000000     3.680000000    -0.797000000
C    -2.824000000     3.366000000    -1.118000000
C    -3.185000000     2.919000000    -2.364000000
H    -2.375000000     2.854000000    -3.087000000
C    -3.753000000     3.384000000    -0.099000000
H    -3.530000000     3.669000000     0.926000000
O    -0.722000000     4.177000000    -1.969000000
H    -0.873000000     2.785000000    -0.370000000
C     1.104000000     4.588000000     0.960000000
C     1.622000000     5.287000000    -0.323000000
H     2.616000000     5.663000000    -0.069000000
H     1.022000000     6.138000000    -0.652000000
C     1.705000000     4.240000000    -1.384000000
C     2.901000000     3.539000000    -1.628000000
H     3.785000000     3.821000000    -1.062000000
C     0.554000000     3.793000000    -2.173000000
C     0.631000000     2.778000000    -3.115000000
H    -0.226000000     2.531000000    -3.737000000
C     1.914000000     2.254000000    -3.388000000
O     2.004000000     1.244000000    -4.379000000
C     1.838000000    -0.146000000    -3.959000000
C     1.015000000    -1.000000000    -4.893000000
C    -0.146000000    -0.485000000    -5.466000000
H    -0.341000000     0.582000000    -5.401000000
C     1.326000000    -2.313000000    -5.131000000
H     2.181000000    -2.743000000    -4.617000000
O     3.227000000    -0.707000000    -3.823000000
H     1.423000000    -0.042000000    -2.946000000
C     3.036000000     2.634000000    -2.661000000
C     4.353000000     1.970000000    -2.894000000
H     5.244000000     2.416000000    -2.445000000
H     4.387000000     1.884000000    -3.982000000
C     4.380000000     0.691000000    -2.173000000
C     3.849000000    -0.567000000    -2.622000000
C     3.918000000    -1.663000000    -1.879000000
H     3.531000000    -2.632000000    -2.184000000
C     4.355000000    -1.584000000    -0.527000000
O     4.005000000    -2.670000000     0.190000000
C     3.185000000    -2.728000000     1.319000000
H     2.447000000    -1.917000000     1.236000000
C     2.312000000    -3.928000000     1.200000000
C     1.844000000    -4.665000000     2.334000000
H     2.292000000    -4.445000000     3.299000000
C     1.790000000    -4.287000000    -0.090000000
H     2.092000000    -3.745000000    -0.983000000
C     0.878000000    -5.294000000    -0.267000000
O     0.348000000    -5.471000000    -1.495000000
C     0.394000000    -5.916000000     0.897000000
H    -0.436000000    -6.603000000     0.749000000
C     0.827000000    -5.664000000     2.178000000
O     0.185000000    -6.164000000     3.276000000
C    -0.304000000    -5.515000000     4.330000000
C    -1.459000000    -4.734000000     4.195000000
H    -2.063000000    -4.848000000     3.299000000
C     0.444000000    -5.546000000     5.590000000
H     1.339000000    -6.131000000     5.788000000
C     0.086000000    -4.691000000     6.594000000
H     0.627000000    -4.625000000     7.534000000
C    -0.989000000    -3.800000000     6.400000000
H    -1.233000000    -3.125000000     7.217000000
C    -1.813000000    -3.887000000     5.277000000
O    -2.775000000    -2.981000000     5.130000000
C    -2.675000000    -1.615000000     5.012000000
C    -3.826000000    -0.840000000     5.000000000
H    -4.827000000    -1.244000000     5.126000000
C    -3.803000000     0.500000000     4.740000000
O    -4.921000000     1.255000000     4.918000000
C    -5.284000000     2.393000000     4.099000000
C    -5.548000000     2.292000000     2.735000000
H    -5.482000000     1.312000000     2.271000000
C    -5.304000000     3.615000000     4.726000000
H    -4.998000000     3.689000000     5.767000000
C    -5.621000000     4.752000000     3.970000000
H    -5.683000000     5.715000000     4.470000000
C    -5.959000000     4.661000000     2.605000000
H    -6.281000000     5.547000000     2.064000000
C    -5.858000000     3.443000000     1.964000000
O    -6.158000000     3.250000000     0.582000000
C    -5.153000000     3.143000000    -0.370000000
C    -5.539000000     2.783000000    -1.647000000
H    -6.592000000     2.623000000    -1.863000000
C    -4.574000000     2.685000000    -2.624000000
O    -4.970000000     2.100000000    -3.800000000
C    -4.145000000     1.968000000    -4.933000000
C    -3.562000000     0.698000000    -5.079000000
H    -3.766000000    -0.099000000    -4.369000000
C    -3.973000000     3.038000000    -5.836000000
H    -4.546000000     3.962000000    -5.829000000
C    -3.245000000     2.712000000    -7.011000000
H    -3.277000000     3.444000000    -7.814000000
C    -2.624000000     1.518000000    -7.224000000
H    -2.164000000     1.245000000    -8.170000000
C    -2.851000000     0.469000000    -6.239000000
O    -2.281000000    -0.754000000    -6.543000000
C    -1.020000000    -1.224000000    -6.206000000
C    -0.697000000    -2.548000000    -6.419000000
H    -1.288000000    -3.236000000    -7.019000000
C     0.526000000    -3.108000000    -5.989000000
O     0.772000000    -4.460000000    -6.099000000
C     1.213000000    -5.172000000    -5.024000000
C     2.389000000    -5.936000000    -5.068000000
H     2.850000000    -6.161000000    -6.026000000
C     2.881000000    -6.547000000    -3.942000000
H     3.782000000    -7.152000000    -3.999000000
C     2.237000000    -6.263000000    -2.735000000
H     2.582000000    -6.730000000    -1.816000000
C     1.064000000    -5.611000000    -2.717000000
C     0.522000000    -5.053000000    -3.855000000
H    -0.428000000    -4.524000000    -3.844000000
C    -2.249000000    -1.230000000    -0.855000000
H    -3.083000000    -1.256000000    -1.552000000
C    -1.284000000    -0.230000000    -0.900000000
H    -1.279000000     0.474000000    -1.728000000
C    -0.306000000    -0.240000000     0.018000000
C     0.721000000     0.727000000    -0.080000000
H     1.032000000     1.049000000    -1.076000000
H     0.560000000     1.546000000     0.625000000
H     1.660000000     0.277000000     0.249000000
C    -0.371000000    -1.141000000     1.120000000
H     0.494000000    -1.213000000     1.774000000
C    -1.313000000    -2.147000000     1.126000000
H    -1.219000000    -2.922000000     1.883000000
C    -2.182000000    -2.247000000     0.066000000
C    -3.164000000    -3.314000000     0.033000000
O    -3.331000000    -4.042000000     0.992000000
O    -3.805000000    -3.539000000    -1.012000000
O    -2.473000000    -5.731000000    -2.891000000
H    -2.945000000    -5.040000000    -2.427000000
H    -1.968000000    -6.175000000    -2.210000000
O    -2.512000000    -8.962000000    -2.016000000
H    -3.437000000    -9.073000000    -2.236000000
H    -2.512000000    -8.758000000    -1.081000000
O    -4.634000000    -2.552000000    -6.137000000
H    -4.856000000    -1.689000000    -6.486000000
H    -4.583000000    -2.422000000    -5.190000000
O    -6.694000000    -3.396000000    -0.897000000
H    -6.839000000    -2.513000000    -1.237000000
H    -5.745000000    -3.514000000    -0.935000000
O    -5.962000000    -0.381000000    -0.023000000
H    -6.592000000     0.286000000    -0.295000000
H    -6.277000000    -0.677000000     0.830000000
O    -3.821000000    -8.950000000     0.247000000
H    -4.772000000    -8.852000000     0.295000000
H    -3.558000000    -9.172000000     1.140000000
O    -6.440000000    -8.863000000     0.294000000
H    -6.916000000    -8.840000000     1.125000000
H    -6.376000000    -7.945000000     0.030000000
O    -5.557000000    -2.835000000     2.475000000
H    -4.927000000    -3.343000000     1.964000000
H    -5.272000000    -2.944000000     3.383000000
O    -5.298000000    -6.189000000    -0.019000000
H    -4.857000000    -6.490000000     0.776000000
H    -4.943000000    -5.313000000    -0.172000000
O    -8.499000000    -3.564000000     1.488000000
H    -7.801000000    -3.999000000     0.998000000
H    -8.760000000    -2.830000000     0.933000000
O    -5.055000000    -6.965000000    -2.765000000
H    -4.256000000    -6.716000000    -3.231000000
H    -4.857000000    -6.795000000    -1.844000000
O    -3.337000000    -4.899000000    -5.763000000
H    -3.881000000    -4.115000000    -5.686000000
H    -3.090000000    -5.108000000    -4.863000000
O    -7.358000000    -0.712000000     2.546000000
H    -8.274000000    -0.988000000     2.562000000
H    -6.871000000    -1.506000000     2.326000000
O    -7.642000000    -5.863000000    -1.896000000
H    -7.417000000    -5.019000000    -1.503000000
H    -6.841000000    -6.144000000    -2.336000000
O    -4.171000000    -5.914000000     2.735000000
H    -4.168000000    -5.460000000     3.578000000
H    -3.950000000    -5.236000000     2.097000000
O    -4.151000000    -2.824000000    -3.464000000
H    -3.752000000    -2.966000000    -2.605000000
H    -4.917000000    -2.279000000    -3.284000000
O    -6.047000000    -1.092000000    -2.688000000
H    -6.720000000    -0.640000000    -3.197000000
H    -5.824000000    -0.477000000    -1.988000000
O    -1.869000000    -7.404000000    -4.828000000
H    -2.186000000    -6.738000000    -4.218000000
H    -1.745000000    -6.934000000    -5.652000000
O    -3.181000000    -8.355000000     3.386000000
H    -3.185000000    -7.405000000     3.264000000
H    -3.635000000    -8.491000000     4.217000000
