218
-1468.92129
C    -2.747000000    -1.545000000    -4.189000000
H    -3.130000000    -0.567000000    -4.468000000
C    -3.110000000    -2.085000000    -2.948000000
C    -2.506000000    -3.298000000    -2.555000000
H    -2.452000000    -3.565000000    -1.503000000
C    -3.745000000    -1.213000000    -1.895000000
O    -4.449000000    -0.050000000    -2.426000000
H    -2.893000000    -0.787000000    -1.344000000
O    -4.517000000    -1.957000000    -0.892000000
C    -4.389000000    -1.519000000     0.430000000
C    -3.730000000    -2.381000000     1.310000000
H    -3.379000000    -3.350000000     0.964000000
C    -3.329000000    -2.020000000     2.621000000
O    -2.606000000    -2.911000000     3.421000000
C    -3.765000000    -0.781000000     3.072000000
C    -3.391000000    -0.299000000     4.472000000
H    -4.168000000     0.356000000     4.872000000
C    -1.957000000     0.255000000     4.604000000
C    -1.779000000     1.630000000     4.511000000
H    -2.630000000     2.289000000     4.359000000
H    -3.289000000    -1.197000000     5.086000000
C    -4.458000000     0.098000000     2.221000000
H    -4.624000000     1.083000000     2.649000000
C    -4.714000000    -0.248000000     0.905000000
C    -5.476000000     0.746000000     0.011000000
H    -6.159000000     1.395000000     0.563000000
H    -6.070000000     0.166000000    -0.699000000
C    -4.532000000     1.675000000    -0.761000000
C    -4.137000000     2.857000000    -0.236000000
H    -4.619000000     3.170000000     0.686000000
C    -4.086000000     1.221000000    -1.987000000
C    -3.166000000     1.951000000    -2.714000000
H    -2.740000000     1.714000000    -3.686000000
C    -2.696000000     3.122000000    -2.150000000
O    -1.719000000     3.827000000    -2.812000000
C    -0.390000000     3.612000000    -2.280000000
C     0.672000000     3.386000000    -3.414000000
C     2.030000000     3.221000000    -3.120000000
H     2.334000000     3.301000000    -2.079000000
C     0.222000000     3.204000000    -4.737000000
H    -0.842000000     3.214000000    -4.960000000
O     0.015000000     4.729000000    -1.419000000
H    -0.478000000     2.723000000    -1.639000000
C    -3.193000000     3.559000000    -0.907000000
C    -2.638000000     4.834000000    -0.275000000
H    -3.431000000     5.263000000     0.341000000
H    -2.488000000     5.551000000    -1.085000000
C    -1.351000000     4.603000000     0.542000000
C    -1.483000000     4.287000000     1.888000000
H    -2.485000000     4.246000000     2.309000000
C    -0.094000000     4.652000000    -0.072000000
C     1.067000000     4.430000000     0.669000000
H     2.052000000     4.341000000     0.219000000
C     0.926000000     4.101000000     2.023000000
O     2.066000000     3.827000000     2.724000000
C     2.293000000     2.369000000     2.906000000
C     3.636000000     1.824000000     2.653000000
C     4.476000000     2.341000000     1.611000000
H     4.081000000     3.097000000     0.937000000
C     4.141000000     0.690000000     3.324000000
H     3.602000000     0.190000000     4.125000000
O     1.808000000     1.906000000     4.207000000
H     1.678000000     1.851000000     2.154000000
C    -0.359000000     4.058000000     2.650000000
C    -0.483000000     3.693000000     4.168000000
H    -1.391000000     4.096000000     4.623000000
H     0.323000000     4.212000000     4.692000000
C    -0.506000000     2.174000000     4.350000000
C     0.599000000     1.358000000     4.419000000
C     0.432000000     0.017000000     4.642000000
H     1.271000000    -0.669000000     4.720000000
C    -0.827000000    -0.604000000     4.719000000
O    -0.860000000    -1.982000000     4.749000000
C    -1.178000000    -2.657000000     3.552000000
H    -0.953000000    -1.936000000     2.752000000
C    -0.388000000    -3.910000000     3.168000000
C    -0.888000000    -5.011000000     2.440000000
H    -1.950000000    -5.087000000     2.219000000
C     0.931000000    -3.877000000     3.557000000
H     1.337000000    -3.082000000     4.178000000
C     1.832000000    -4.846000000     3.125000000
O     3.170000000    -4.737000000     3.373000000
C     1.382000000    -5.973000000     2.429000000
H     2.052000000    -6.711000000     1.995000000
C     0.066000000    -6.065000000     2.086000000
O    -0.443000000    -7.092000000     1.291000000
C    -1.234000000    -6.824000000     0.126000000
C    -0.740000000    -6.057000000    -0.909000000
H     0.274000000    -5.681000000    -0.802000000
C    -2.383000000    -7.484000000    -0.037000000
H    -2.686000000    -8.075000000     0.824000000
C    -3.161000000    -7.390000000    -1.218000000
H    -4.062000000    -7.965000000    -1.415000000
C    -2.718000000    -6.566000000    -2.222000000
H    -3.295000000    -6.543000000    -3.143000000
C    -1.505000000    -5.910000000    -2.064000000
O    -0.989000000    -5.152000000    -3.058000000
C    -1.776000000    -4.087000000    -3.480000000
C    -1.499000000    -3.557000000    -4.736000000
H    -0.837000000    -4.118000000    -5.391000000
C    -1.978000000    -2.291000000    -5.072000000
O    -1.696000000    -1.824000000    -6.327000000
C    -1.723000000    -0.506000000    -6.831000000
C    -0.530000000     0.205000000    -6.727000000
H     0.395000000    -0.311000000    -6.484000000
C    -2.947000000     0.098000000    -7.203000000
H    -3.825000000    -0.532000000    -7.319000000
C    -2.950000000     1.393000000    -7.636000000
H    -3.859000000     1.893000000    -7.958000000
C    -1.732000000     2.118000000    -7.574000000
H    -1.700000000     3.181000000    -7.797000000
C    -0.535000000     1.583000000    -7.035000000
O     0.640000000     2.369000000    -6.878000000
C     1.097000000     2.745000000    -5.679000000
C     2.443000000     2.652000000    -5.371000000
H     3.136000000     2.399000000    -6.169000000
C     2.939000000     2.967000000    -4.092000000
O     4.367000000     2.785000000    -3.878000000
C     5.035000000     3.356000000    -2.795000000
C     5.511000000     2.515000000    -1.769000000
H     5.299000000     1.450000000    -1.724000000
C     5.306000000     4.760000000    -2.897000000
H     4.902000000     5.356000000    -3.712000000
C     5.992000000     5.288000000    -1.797000000
H     6.165000000     6.357000000    -1.894000000
C     6.469000000     4.459000000    -0.799000000
H     7.017000000     4.912000000     0.024000000
C     6.236000000     3.084000000    -0.736000000
O     6.592000000     2.372000000     0.473000000
C     5.779000000     1.838000000     1.409000000
C     6.283000000     0.865000000     2.306000000
H     7.248000000     0.407000000     2.106000000
C     5.426000000     0.221000000     3.153000000
O     5.912000000    -0.864000000     3.836000000
C     5.232000000    -1.932000000     4.424000000
C     5.268000000    -2.138000000     5.824000000
H     5.907000000    -1.546000000     6.474000000
C     4.566000000    -3.232000000     6.405000000
H     4.684000000    -3.442000000     7.465000000
C     3.819000000    -4.009000000     5.558000000
H     3.221000000    -4.865000000     5.861000000
C     3.775000000    -3.794000000     4.193000000
C     4.538000000    -2.832000000     3.586000000
H     4.615000000    -2.605000000     2.525000000
C     0.990000000    -2.472000000    -0.062000000
H     0.886000000    -3.552000000    -0.134000000
C    -0.144000000    -1.635000000     0.108000000
H    -1.102000000    -2.143000000     0.182000000
C     0.045000000    -0.223000000     0.266000000
C    -1.177000000     0.739000000     0.579000000
H    -0.946000000     1.231000000     1.527000000
H    -1.410000000     1.440000000    -0.226000000
H    -2.016000000     0.046000000     0.672000000
C     1.308000000     0.262000000     0.218000000
H     1.398000000     1.343000000     0.291000000
C     2.443000000    -0.599000000     0.131000000
H     3.444000000    -0.177000000     0.159000000
C     2.263000000    -1.946000000    -0.079000000
C     3.474000000    -2.902000000    -0.097000000
O     4.650000000    -2.459000000    -0.051000000
O     3.280000000    -4.085000000    -0.134000000
O     7.938000000    -5.375000000    -1.129000000
H     7.847000000    -6.267000000    -0.792000000
H     7.047000000    -5.114000000    -1.359000000
O     6.128000000    -7.916000000    -2.959000000
H     6.840000000    -8.036000000    -2.332000000
H     5.810000000    -7.028000000    -2.794000000
O     3.461000000    -7.990000000    -0.613000000
H     3.287000000    -8.572000000     0.127000000
H     4.034000000    -7.312000000    -0.255000000
O     3.332000000    -8.153000000     3.691000000
H     3.026000000    -8.175000000     4.597000000
H     4.156000000    -7.667000000     3.728000000
O     5.312000000    -5.417000000    -1.877000000
H     4.706000000    -4.691000000    -2.025000000
H     5.049000000    -5.780000000    -1.031000000
O     1.751000000    -1.902000000    -3.776000000
H     2.449000000    -1.487000000    -4.283000000
H     1.192000000    -1.176000000    -3.498000000
O     7.977000000    -4.145000000     2.811000000
H     7.499000000    -4.920000000     3.109000000
H     8.639000000    -4.488000000     2.211000000
O     4.384000000    -4.141000000    -4.876000000
H     5.103000000    -3.855000000    -4.313000000
H     3.630000000    -4.202000000    -4.289000000
O     1.628000000    -2.939000000    -6.329000000
H     1.378000000    -3.108000000    -5.421000000
H     2.216000000    -3.659000000    -6.554000000
O     9.126000000    -0.477000000     0.440000000
H     9.539000000    -0.655000000     1.285000000
H     8.323000000    -0.998000000     0.451000000
O     4.172000000    -0.277000000    -3.662000000
H     4.976000000     0.240000000    -3.714000000
H     4.432000000    -1.079000000    -3.209000000
O     5.364000000    -6.528000000     3.968000000
H     6.232000000    -6.680000000     4.340000000
H     5.032000000    -5.763000000     4.438000000
O     1.881000000    -7.248000000    -2.897000000
H     1.888000000    -6.293000000    -2.956000000
H     2.554000000    -7.453000000    -2.247000000
O     4.697000000    -5.985000000     0.864000000
H     4.235000000    -5.147000000     0.869000000
H     4.842000000    -6.185000000     1.789000000
O     7.886000000    -2.543000000    -2.055000000
H     7.809000000    -2.486000000    -1.103000000
H     8.325000000    -1.731000000    -2.309000000
O     2.570000000    -4.267000000    -2.681000000
H     2.817000000    -4.204000000    -1.758000000
H     2.183000000    -3.415000000    -2.883000000
O     9.038000000    -4.645000000    -3.831000000
H     8.554000000    -4.296000000    -3.083000000
H     9.143000000    -5.576000000    -3.636000000
O     7.156000000    -2.352000000     0.560000000
H     6.230000000    -2.241000000     0.344000000
H     7.154000000    -2.894000000     1.349000000
O     5.315000000    -2.504000000    -2.691000000
H     5.140000000    -2.553000000    -1.751000000
H     6.260000000    -2.360000000    -2.752000000
