218
-1481.59572
C    -3.980000000     0.239000000     3.512000000
H    -4.141000000     1.192000000     3.014000000
C    -2.731000000     0.077000000     4.084000000
C    -2.440000000    -1.232000000     4.529000000
H    -1.439000000    -1.427000000     4.905000000
C    -1.667000000     1.120000000     3.919000000
O    -2.253000000     2.409000000     3.778000000
H    -1.251000000     0.944000000     2.916000000
O    -0.632000000     1.052000000     4.933000000
C     0.725000000     1.181000000     4.623000000
C     1.494000000     0.034000000     4.429000000
H     0.989000000    -0.928000000     4.479000000
C     2.734000000     0.022000000     3.833000000
O     3.377000000    -1.202000000     3.505000000
C     3.226000000     1.306000000     3.460000000
C     4.612000000     1.467000000     2.929000000
H     5.135000000     2.371000000     3.250000000
C     4.662000000     1.273000000     1.416000000
C     4.488000000     2.368000000     0.531000000
H     4.290000000     3.361000000     0.929000000
H     5.298000000     0.751000000     3.388000000
C     2.479000000     2.492000000     3.670000000
H     2.904000000     3.413000000     3.281000000
C     1.193000000     2.413000000     4.149000000
C     0.375000000     3.664000000     4.128000000
H     1.089000000     4.483000000     4.226000000
H    -0.220000000     3.796000000     5.034000000
C    -0.611000000     3.937000000     2.957000000
C    -0.118000000     4.639000000     1.833000000
H     0.838000000     5.136000000     1.982000000
C    -1.837000000     3.275000000     2.798000000
C    -2.634000000     3.378000000     1.639000000
H    -3.612000000     2.919000000     1.517000000
C    -2.184000000     4.282000000     0.688000000
O    -2.891000000     4.212000000    -0.407000000
C    -2.431000000     3.307000000    -1.453000000
C    -3.533000000     2.422000000    -2.154000000
C    -3.350000000     1.816000000    -3.404000000
H    -2.400000000     2.061000000    -3.870000000
C    -4.684000000     2.045000000    -1.500000000
H    -4.826000000     2.552000000    -0.549000000
O    -1.655000000     3.951000000    -2.501000000
H    -1.733000000     2.637000000    -0.929000000
C    -0.899000000     4.822000000     0.708000000
C    -0.260000000     5.592000000    -0.534000000
H     0.488000000     6.281000000    -0.136000000
H    -0.940000000     6.254000000    -1.074000000
C     0.433000000     4.632000000    -1.409000000
C     1.827000000     4.412000000    -1.317000000
H     2.355000000     4.957000000    -0.540000000
C    -0.293000000     3.883000000    -2.401000000
C     0.414000000     2.957000000    -3.143000000
H    -0.063000000     2.374000000    -3.927000000
C     1.817000000     2.740000000    -2.977000000
O     2.348000000     1.736000000    -3.759000000
C     2.628000000     0.501000000    -3.094000000
C     2.349000000    -0.658000000    -4.080000000
C     1.575000000    -0.364000000    -5.194000000
H     1.235000000     0.628000000    -5.478000000
C     2.699000000    -1.967000000    -3.787000000
H     3.317000000    -2.155000000    -2.913000000
O     4.102000000     0.458000000    -2.709000000
H     1.942000000     0.415000000    -2.238000000
C     2.557000000     3.480000000    -2.039000000
C     4.023000000     3.331000000    -1.711000000
H     4.505000000     4.220000000    -1.298000000
H     4.534000000     3.189000000    -2.666000000
C     4.284000000     2.108000000    -0.845000000
C     4.377000000     0.779000000    -1.371000000
C     4.583000000    -0.256000000    -0.496000000
H     4.436000000    -1.249000000    -0.912000000
C     4.686000000    -0.004000000     0.899000000
O     4.679000000    -1.161000000     1.596000000
C     3.426000000    -1.631000000     2.082000000
H     2.607000000    -0.994000000     1.715000000
C     3.136000000    -3.089000000     1.884000000
C     1.974000000    -3.652000000     2.444000000
H     1.246000000    -3.044000000     2.975000000
C     3.846000000    -3.900000000     1.030000000
H     4.735000000    -3.551000000     0.511000000
C     3.427000000    -5.224000000     0.796000000
O     4.236000000    -5.935000000    -0.101000000
C     2.423000000    -5.800000000     1.546000000
H     2.206000000    -6.865000000     1.530000000
C     1.645000000    -5.010000000     2.357000000
O     0.463000000    -5.490000000     2.927000000
C    -0.013000000    -4.973000000     4.104000000
C    -1.322000000    -4.507000000     4.044000000
H    -1.829000000    -4.495000000     3.083000000
C     0.732000000    -4.973000000     5.220000000
H     1.790000000    -5.221000000     5.256000000
C     0.136000000    -4.484000000     6.453000000
H     0.710000000    -4.552000000     7.374000000
C    -1.124000000    -3.953000000     6.397000000
H    -1.552000000    -3.479000000     7.277000000
C    -1.874000000    -4.037000000     5.203000000
O    -3.166000000    -3.406000000     5.282000000
C    -3.450000000    -2.164000000     4.698000000
C    -4.707000000    -1.940000000     4.280000000
H    -5.498000000    -2.683000000     4.351000000
C    -4.974000000    -0.734000000     3.601000000
O    -6.195000000    -0.708000000     3.042000000
C    -6.639000000     0.344000000     2.258000000
C    -6.528000000     0.221000000     0.850000000
H    -6.014000000    -0.583000000     0.330000000
C    -7.229000000     1.448000000     2.807000000
H    -7.343000000     1.463000000     3.888000000
C    -7.572000000     2.531000000     2.044000000
H    -7.855000000     3.498000000     2.451000000
C    -7.577000000     2.386000000     0.644000000
H    -7.858000000     3.234000000     0.025000000
C    -7.022000000     1.199000000     0.065000000
O    -6.870000000     1.007000000    -1.295000000
C    -5.697000000     1.184000000    -2.022000000
C    -5.386000000     0.488000000    -3.186000000
H    -5.986000000    -0.388000000    -3.420000000
C    -4.236000000     0.890000000    -3.911000000
O    -3.726000000     0.004000000    -4.924000000
C    -2.777000000     0.332000000    -5.929000000
C    -1.640000000    -0.521000000    -6.103000000
H    -1.577000000    -1.443000000    -5.531000000
C    -2.773000000     1.638000000    -6.583000000
H    -3.543000000     2.365000000    -6.338000000
C    -1.800000000     1.880000000    -7.503000000
H    -1.829000000     2.711000000    -8.202000000
C    -0.739000000     1.038000000    -7.728000000
H    -0.057000000     1.371000000    -8.506000000
C    -0.641000000    -0.188000000    -7.055000000
O     0.475000000    -0.969000000    -7.224000000
C     1.224000000    -1.329000000    -6.084000000
C     1.658000000    -2.616000000    -5.864000000
H     1.480000000    -3.456000000    -6.530000000
C     2.385000000    -2.976000000    -4.677000000
O     2.547000000    -4.272000000    -4.265000000
C     3.543000000    -4.666000000    -3.469000000
C     4.706000000    -4.989000000    -4.088000000
H     4.860000000    -4.712000000    -5.128000000
C     5.750000000    -5.539000000    -3.374000000
H     6.737000000    -5.709000000    -3.797000000
C     5.604000000    -5.891000000    -2.037000000
H     6.374000000    -6.306000000    -1.392000000
C     4.399000000    -5.596000000    -1.450000000
C     3.373000000    -4.939000000    -2.121000000
H     2.400000000    -4.848000000    -1.646000000
C    -2.266000000    -0.913000000    -1.596000000
H    -2.655000000    -0.927000000    -2.611000000
C    -1.335000000     0.043000000    -1.175000000
H    -1.047000000     0.756000000    -1.944000000
C    -0.757000000    -0.113000000     0.081000000
C     0.437000000     0.767000000     0.303000000
H     0.642000000     0.908000000     1.366000000
H     1.323000000     0.475000000    -0.265000000
H     0.182000000     1.777000000    -0.027000000
C    -1.057000000    -1.174000000     0.924000000
H    -0.594000000    -1.164000000     1.907000000
C    -2.099000000    -2.015000000     0.597000000
H    -2.448000000    -2.836000000     1.219000000
C    -2.698000000    -1.893000000    -0.656000000
C    -3.666000000    -2.981000000    -1.141000000
O    -4.025000000    -3.908000000    -0.421000000
O    -4.193000000    -2.853000000    -2.263000000
O    -1.797000000    -7.260000000     0.775000000
H    -0.964000000    -7.731000000     0.753000000
H    -1.759000000    -6.673000000     0.019000000
O    -6.165000000    -5.300000000    -4.132000000
H    -5.397000000    -4.730000000    -4.181000000
H    -6.621000000    -5.157000000    -4.961000000
O    -6.543000000    -4.193000000    -6.873000000
H    -7.267000000    -4.043000000    -7.480000000
H    -6.181000000    -3.322000000    -6.712000000
O    -7.886000000    -6.983000000    -2.059000000
H    -8.031000000    -6.201000000    -2.592000000
H    -7.455000000    -6.657000000    -1.269000000
O    -6.837000000    -3.551000000    -1.913000000
H    -5.948000000    -3.197000000    -1.937000000
H    -6.753000000    -4.435000000    -2.270000000
O    -3.994000000    -7.323000000    -1.897000000
H    -4.503000000    -6.943000000    -1.182000000
H    -3.659000000    -8.146000000    -1.542000000
O    -9.021000000    -0.739000000    -1.599000000
H    -8.967000000    -1.284000000    -2.384000000
H    -8.196000000    -0.254000000    -1.587000000
O    -3.823000000    -3.962000000    -4.649000000
H    -3.224000000    -4.681000000    -4.449000000
H    -3.845000000    -3.438000000    -3.848000000
O    -0.722000000    -7.294000000    -4.001000000
H    -0.842000000    -6.898000000    -3.137000000
H    -1.585000000    -7.244000000    -4.410000000
O    -3.471000000    -6.631000000    -4.653000000
H    -3.562000000    -6.971000000    -3.763000000
H    -4.309000000    -6.830000000    -5.072000000
O    -7.052000000    -4.436000000     2.093000000
H    -7.732000000    -3.830000000     1.800000000
H    -7.491000000    -5.000000000     2.730000000
O    -4.310000000    -4.333000000     2.325000000
H    -5.263000000    -4.324000000     2.236000000
H    -3.985000000    -4.182000000     1.437000000
O    -8.135000000    -1.934000000    -4.180000000
H    -7.813000000    -2.724000000    -3.745000000
H    -7.584000000    -1.848000000    -4.958000000
O    -5.791000000    -1.698000000    -5.512000000
H    -5.116000000    -1.971000000    -4.891000000
H    -5.503000000    -0.837000000    -5.817000000
O    -1.850000000    -5.349000000    -1.248000000
H    -2.440000000    -4.824000000    -0.707000000
H    -2.429000000    -5.820000000    -1.847000000
O    -3.480000000    -6.932000000     3.167000000
H    -3.279000000    -6.781000000     2.244000000
H    -4.059000000    -6.208000000     3.408000000
O    -6.004000000    -5.712000000     0.037000000
H    -6.389000000    -5.311000000     0.816000000
H    -5.386000000    -5.057000000    -0.288000000
O    -8.951000000    -3.198000000    -0.099000000
H    -9.220000000    -2.336000000    -0.415000000
H    -8.231000000    -3.452000000    -0.677000000
O     0.304000000    -3.096000000    -1.678000000
H    -0.239000000    -2.383000000    -1.341000000
H    -0.181000000    -3.892000000    -1.457000000
