218
-1480.71617
C    -1.539000000    -0.741000000    -4.446000000
H    -1.237000000     0.302000000    -4.495000000
C    -2.607000000    -1.114000000    -3.593000000
C    -2.948000000    -2.451000000    -3.631000000
H    -3.815000000    -2.803000000    -3.079000000
C    -3.216000000    -0.163000000    -2.592000000
O    -3.600000000     1.083000000    -3.143000000
H    -2.528000000     0.126000000    -1.784000000
O    -4.433000000    -0.722000000    -1.982000000
C    -4.579000000    -0.598000000    -0.659000000
C    -4.200000000    -1.717000000     0.112000000
H    -3.905000000    -2.600000000    -0.449000000
C    -4.079000000    -1.587000000     1.482000000
O    -3.640000000    -2.659000000     2.152000000
C    -4.315000000    -0.341000000     2.144000000
C    -4.186000000    -0.138000000     3.611000000
H    -4.905000000     0.630000000     3.903000000
C    -2.792000000     0.172000000     4.057000000
C    -2.420000000     1.473000000     4.247000000
H    -3.192000000     2.234000000     4.329000000
H    -4.545000000    -1.051000000     4.090000000
C    -4.720000000     0.792000000     1.298000000
H    -4.935000000     1.743000000     1.777000000
C    -4.835000000     0.682000000    -0.079000000
C    -5.255000000     1.922000000    -1.007000000
H    -6.006000000     2.592000000    -0.585000000
H    -5.737000000     1.485000000    -1.884000000
C    -3.973000000     2.704000000    -1.328000000
C    -3.517000000     3.796000000    -0.567000000
H    -4.047000000     3.885000000     0.377000000
C    -3.256000000     2.209000000    -2.422000000
C    -2.111000000     2.907000000    -2.763000000
H    -1.477000000     2.582000000    -3.584000000
C    -1.599000000     3.981000000    -2.043000000
O    -0.381000000     4.481000000    -2.373000000
C     0.804000000     4.033000000    -1.714000000
C     1.913000000     3.696000000    -2.679000000
C     3.180000000     3.552000000    -2.141000000
H     3.265000000     3.735000000    -1.073000000
C     1.682000000     3.522000000    -4.054000000
H     0.684000000     3.632000000    -4.470000000
O     1.192000000     5.005000000    -0.643000000
H     0.515000000     3.114000000    -1.185000000
C    -2.300000000     4.410000000    -0.861000000
C    -1.623000000     5.498000000    -0.027000000
H    -2.355000000     6.081000000     0.537000000
H    -1.123000000     6.294000000    -0.583000000
C    -0.661000000     4.924000000     0.959000000
C    -0.999000000     4.466000000     2.293000000
H    -2.046000000     4.521000000     2.582000000
C     0.751000000     4.722000000     0.647000000
C     1.646000000     4.068000000     1.524000000
H     2.679000000     3.933000000     1.212000000
C     1.212000000     3.691000000     2.773000000
O     2.067000000     2.873000000     3.519000000
C     1.793000000     1.492000000     3.481000000
C     3.123000000     0.714000000     3.257000000
C     4.254000000     1.356000000     2.704000000
H     4.277000000     2.431000000     2.539000000
C     3.202000000    -0.696000000     3.523000000
H     2.365000000    -1.189000000     4.010000000
O     1.171000000     1.077000000     4.726000000
H     1.091000000     1.189000000     2.689000000
C    -0.107000000     3.923000000     3.158000000
C    -0.556000000     3.316000000     4.530000000
H    -1.284000000     3.988000000     4.989000000
H     0.344000000     3.348000000     5.149000000
C    -1.120000000     1.841000000     4.519000000
C    -0.193000000     0.849000000     4.643000000
C    -0.488000000    -0.503000000     4.453000000
H     0.308000000    -1.235000000     4.559000000
C    -1.807000000    -0.795000000     4.219000000
O    -2.114000000    -2.089000000     3.916000000
C    -2.202000000    -2.557000000     2.515000000
H    -1.733000000    -1.877000000     1.789000000
C    -1.571000000    -3.920000000     2.382000000
C    -1.836000000    -4.634000000     1.218000000
H    -2.464000000    -4.201000000     0.444000000
C    -0.742000000    -4.515000000     3.388000000
H    -0.500000000    -4.019000000     4.325000000
C     0.016000000    -5.632000000     3.073000000
O     0.964000000    -6.117000000     3.938000000
C    -0.122000000    -6.348000000     1.816000000
H     0.363000000    -7.304000000     1.630000000
C    -1.117000000    -5.833000000     0.972000000
O    -1.446000000    -6.730000000    -0.096000000
C    -2.423000000    -6.444000000    -1.137000000
C    -2.106000000    -5.610000000    -2.207000000
H    -1.056000000    -5.394000000    -2.388000000
C    -3.700000000    -6.945000000    -1.054000000
H    -4.003000000    -7.437000000    -0.134000000
C    -4.713000000    -6.622000000    -1.994000000
H    -5.758000000    -6.920000000    -1.975000000
C    -4.310000000    -5.825000000    -3.043000000
H    -5.017000000    -5.533000000    -3.816000000
C    -2.990000000    -5.371000000    -3.224000000
O    -2.627000000    -4.726000000    -4.375000000
C    -2.271000000    -3.385000000    -4.402000000
C    -1.184000000    -3.062000000    -5.169000000
H    -0.686000000    -3.869000000    -5.699000000
C    -0.827000000    -1.677000000    -5.203000000
O     0.339000000    -1.352000000    -5.920000000
C     0.502000000    -0.129000000    -6.440000000
C     1.474000000     0.776000000    -5.965000000
H     2.216000000     0.431000000    -5.250000000
C    -0.396000000     0.149000000    -7.449000000
H    -1.090000000    -0.622000000    -7.772000000
C    -0.309000000     1.421000000    -8.118000000
H    -0.759000000     1.603000000    -9.090000000
C     0.772000000     2.248000000    -7.739000000
H     0.963000000     3.190000000    -8.248000000
C     1.588000000     2.015000000    -6.629000000
O     2.459000000     3.049000000    -6.263000000
C     2.752000000     3.219000000    -4.886000000
C     4.021000000     3.100000000    -4.378000000
H     4.757000000     2.727000000    -5.085000000
C     4.184000000     3.234000000    -2.997000000
O     5.426000000     3.047000000    -2.448000000
C     5.732000000     3.272000000    -1.097000000
C     5.728000000     2.151000000    -0.285000000
H     5.271000000     1.255000000    -0.697000000
C     6.286000000     4.507000000    -0.643000000
H     6.233000000     5.368000000    -1.305000000
C     6.917000000     4.593000000     0.592000000
H     7.500000000     5.452000000     0.916000000
C     6.880000000     3.469000000     1.424000000
H     7.331000000     3.488000000     2.413000000
C     6.304000000     2.256000000     0.996000000
O     6.378000000     1.208000000     1.829000000
C     5.367000000     0.597000000     2.402000000
C     5.367000000    -0.782000000     2.477000000
H     6.174000000    -1.392000000     2.079000000
C     4.340000000    -1.418000000     3.144000000
O     4.432000000    -2.818000000     3.302000000
C     3.703000000    -3.579000000     4.189000000
C     3.978000000    -3.571000000     5.549000000
H     4.652000000    -2.873000000     6.039000000
C     3.301000000    -4.491000000     6.370000000
H     3.554000000    -4.515000000     7.427000000
C     2.347000000    -5.409000000     5.875000000
H     1.900000000    -6.083000000     6.600000000
C     1.975000000    -5.347000000     4.496000000
C     2.697000000    -4.446000000     3.678000000
H     2.615000000    -4.377000000     2.596000000
C     0.300000000    -2.319000000    -0.800000000
H    -0.187000000    -3.213000000    -1.180000000
C    -0.499000000    -1.193000000    -0.426000000
H    -1.570000000    -1.273000000    -0.596000000
C     0.149000000     0.016000000    -0.070000000
C    -0.650000000     1.302000000     0.199000000
H    -1.001000000     1.637000000    -0.779000000
H    -1.563000000     1.064000000     0.750000000
H     0.017000000     1.977000000     0.740000000
C     1.514000000     0.110000000     0.136000000
H     1.979000000     1.022000000     0.501000000
C     2.255000000    -1.064000000    -0.035000000
H     3.330000000    -1.075000000     0.124000000
C     1.670000000    -2.285000000    -0.487000000
C     2.641000000    -3.497000000    -0.665000000
O     3.831000000    -3.248000000    -0.707000000
O     2.183000000    -4.557000000    -0.982000000
O     4.816000000    -3.977000000    -4.095000000
H     5.752000000    -3.817000000    -3.977000000
H     4.561000000    -4.486000000    -3.325000000
O     3.128000000    -8.834000000    -2.267000000
H     3.526000000    -8.578000000    -3.099000000
H     3.731000000    -9.480000000    -1.901000000
O     4.941000000    -7.303000000     0.155000000
H     5.069000000    -8.117000000    -0.332000000
H     5.543000000    -7.371000000     0.897000000
O     5.269000000    -6.339000000    -5.413000000
H     4.412000000    -6.322000000    -5.839000000
H     5.291000000    -5.539000000    -4.888000000
O     2.557000000    -1.567000000    -3.336000000
H     3.015000000    -1.094000000    -2.642000000
H     1.681000000    -1.721000000    -2.983000000
O     7.896000000    -6.107000000     0.729000000
H     7.473000000    -5.255000000     0.838000000
H     7.799000000    -6.533000000     1.581000000
O     2.601000000    -5.666000000    -5.984000000
H     2.630000000    -5.410000000    -5.062000000
H     2.031000000    -5.016000000    -6.395000000
O     4.423000000    -1.245000000    -6.042000000
H     5.219000000    -1.675000000    -6.354000000
H     4.161000000    -1.754000000    -5.275000000
O     7.990000000    -1.740000000     0.292000000
H     8.772000000    -1.864000000    -0.246000000
H     7.318000000    -1.449000000    -0.325000000
O     0.258000000    -9.429000000     0.387000000
H     0.736000000    -8.744000000    -0.079000000
H     0.128000000    -9.075000000     1.267000000
O     1.298000000    -7.499000000    -0.872000000
H     1.532000000    -6.572000000    -0.934000000
H     1.970000000    -7.950000000    -1.384000000
O     7.241000000    -5.398000000    -1.903000000
H     7.453000000    -5.708000000    -1.023000000
H     6.285000000    -5.377000000    -1.926000000
O     4.504000000    -5.668000000    -2.008000000
H     4.731000000    -6.266000000    -1.296000000
H     3.728000000    -5.204000000    -1.694000000
O     2.760000000    -7.659000000     1.774000000
H     2.367000000    -6.787000000     1.824000000
H     3.264000000    -7.648000000     0.961000000
O     7.557000000    -3.492000000    -3.698000000
H     7.946000000    -3.990000000    -4.416000000
H     7.478000000    -4.124000000    -2.983000000
O     1.814000000    -4.473000000    -3.514000000
H     1.887000000    -4.424000000    -2.560000000
H     2.316000000    -3.722000000    -3.831000000
O     0.508000000    -7.067000000    -3.596000000
H     0.506000000    -7.509000000    -2.747000000
H     1.195000000    -6.404000000    -3.519000000
O     6.041000000    -4.158000000     0.524000000
H     5.152000000    -4.280000000     0.192000000
H     6.187000000    -3.213000000     0.477000000
O     5.774000000    -1.529000000    -1.565000000
H     4.985000000    -2.057000000    -1.441000000
H     6.076000000    -1.751000000    -2.445000000
