218
-1452.92460
C    -1.376000000    -1.398000000     3.907000000
H    -2.283000000    -0.985000000     3.474000000
C    -0.272000000    -0.668000000     4.221000000
C     0.863000000    -1.285000000     4.678000000
H     1.754000000    -0.771000000     5.029000000
C    -0.399000000     0.835000000     3.883000000
O    -1.655000000     1.397000000     4.261000000
H    -0.396000000     0.934000000     2.787000000
O     0.645000000     1.537000000     4.491000000
C     1.419000000     2.333000000     3.626000000
C     2.590000000     1.863000000     3.084000000
H     2.845000000     0.821000000     3.258000000
C     3.304000000     2.630000000     2.182000000
O     4.369000000     2.024000000     1.611000000
C     2.787000000     3.859000000     1.794000000
C     3.338000000     4.538000000     0.508000000
H     3.281000000     5.628000000     0.486000000
C     2.823000000     3.881000000    -0.796000000
C     1.679000000     4.321000000    -1.429000000
H     1.209000000     5.246000000    -1.105000000
H     4.429000000     4.496000000     0.505000000
C     1.693000000     4.325000000     2.388000000
H     1.212000000     5.245000000     2.065000000
C     0.919000000     3.581000000     3.243000000
C    -0.438000000     4.030000000     3.776000000
H    -0.589000000     5.112000000     3.753000000
H    -0.553000000     3.720000000     4.817000000
C    -1.648000000     3.414000000     3.015000000
C    -2.168000000     4.054000000     1.894000000
H    -1.654000000     4.953000000     1.562000000
C    -2.282000000     2.212000000     3.424000000
C    -3.436000000     1.758000000     2.763000000
H    -3.771000000     0.760000000     3.035000000
C    -3.877000000     2.375000000     1.635000000
O    -4.891000000     1.781000000     0.941000000
C    -4.576000000     0.997000000    -0.167000000
C    -5.566000000    -0.197000000    -0.274000000
C    -5.681000000    -0.803000000    -1.533000000
H    -5.424000000    -0.259000000    -2.437000000
C    -6.026000000    -0.819000000     0.883000000
H    -5.686000000    -0.379000000     1.817000000
O    -4.590000000     1.746000000    -1.400000000
H    -3.630000000     0.483000000     0.059000000
C    -3.251000000     3.533000000     1.190000000
C    -3.647000000     4.182000000    -0.093000000
H    -3.322000000     5.224000000    -0.086000000
H    -4.735000000     4.223000000    -0.180000000
C    -2.917000000     3.536000000    -1.316000000
C    -1.799000000     4.137000000    -1.895000000
H    -1.398000000     5.045000000    -1.452000000
C    -3.409000000     2.362000000    -1.871000000
C    -2.782000000     1.849000000    -3.082000000
H    -3.250000000     1.025000000    -3.614000000
C    -1.608000000     2.429000000    -3.554000000
O    -0.899000000     1.729000000    -4.526000000
C     0.324000000     1.041000000    -4.085000000
C     0.517000000    -0.431000000    -4.451000000
C    -0.650000000    -1.134000000    -4.677000000
H    -1.595000000    -0.596000000    -4.678000000
C     1.763000000    -1.054000000    -4.396000000
H     2.575000000    -0.468000000    -3.973000000
O     1.507000000     1.891000000    -4.243000000
H     0.236000000     0.968000000    -2.991000000
C    -1.087000000     3.572000000    -2.970000000
C     0.095000000     4.311000000    -3.472000000
H     0.042000000     5.399000000    -3.392000000
H     0.125000000     4.073000000    -4.537000000
C     1.272000000     3.803000000    -2.650000000
C     1.930000000     2.722000000    -3.186000000
C     3.046000000     2.256000000    -2.522000000
H     3.563000000     1.377000000    -2.899000000
C     3.522000000     2.830000000    -1.369000000
O     4.579000000     2.181000000    -0.755000000
C     4.233000000     1.298000000     0.379000000
H     3.173000000     1.013000000     0.305000000
C     5.120000000     0.026000000     0.381000000
C     5.354000000    -0.760000000     1.570000000
H     4.971000000    -0.407000000     2.524000000
C     5.574000000    -0.451000000    -0.798000000
H     5.306000000     0.059000000    -1.720000000
C     6.223000000    -1.691000000    -0.883000000
O     6.672000000    -2.169000000    -2.108000000
C     6.523000000    -2.383000000     0.299000000
H     7.112000000    -3.296000000     0.283000000
C     6.028000000    -1.964000000     1.501000000
O     6.118000000    -2.748000000     2.624000000
C     5.341000000    -2.636000000     3.819000000
C     3.970000000    -3.061000000     3.897000000
H     3.480000000    -3.362000000     2.974000000
C     6.062000000    -2.241000000     4.966000000
H     7.092000000    -1.926000000     4.822000000
C     5.471000000    -2.252000000     6.227000000
H     6.067000000    -1.872000000     7.052000000
C     4.124000000    -2.657000000     6.270000000
H     3.670000000    -2.783000000     7.249000000
C     3.368000000    -3.029000000     5.168000000
O     2.024000000    -3.346000000     5.274000000
C     0.917000000    -2.678000000     4.874000000
C    -0.230000000    -3.413000000     4.571000000
H    -0.253000000    -4.486000000     4.741000000
C    -1.365000000    -2.795000000     4.113000000
O    -2.484000000    -3.494000000     3.796000000
C    -3.790000000    -3.062000000     3.867000000
C    -4.661000000    -3.208000000     2.799000000
H    -4.375000000    -3.565000000     1.813000000
C    -4.242000000    -2.591000000     5.107000000
H    -3.503000000    -2.663000000     5.902000000
C    -5.610000000    -2.456000000     5.294000000
H    -5.924000000    -2.095000000     6.270000000
C    -6.464000000    -2.447000000     4.187000000
H    -7.518000000    -2.184000000     4.245000000
C    -5.993000000    -2.910000000     2.984000000
O    -6.839000000    -2.820000000     1.901000000
C    -6.536000000    -2.090000000     0.778000000
C    -6.675000000    -2.719000000    -0.430000000
H    -6.908000000    -3.780000000    -0.420000000
C    -6.181000000    -2.085000000    -1.577000000
O    -6.142000000    -2.836000000    -2.754000000
C    -5.234000000    -2.644000000    -3.833000000
C    -3.947000000    -3.113000000    -3.764000000
H    -3.532000000    -3.396000000    -2.800000000
C    -5.706000000    -2.106000000    -5.007000000
H    -6.787000000    -2.000000000    -5.066000000
C    -4.823000000    -1.798000000    -6.028000000
H    -5.170000000    -1.366000000    -6.964000000
C    -3.474000000    -2.110000000    -5.953000000
H    -2.813000000    -2.106000000    -6.816000000
C    -3.072000000    -2.796000000    -4.824000000
O    -1.733000000    -3.209000000    -4.792000000
C    -0.593000000    -2.512000000    -4.830000000
C     0.649000000    -3.110000000    -5.000000000
H     0.642000000    -4.193000000    -5.099000000
C     1.815000000    -2.366000000    -4.801000000
O     3.030000000    -3.013000000    -4.968000000
C     4.213000000    -2.353000000    -4.763000000
C     4.775000000    -1.562000000    -5.783000000
H     4.202000000    -1.605000000    -6.706000000
C     6.030000000    -0.980000000    -5.551000000
H     6.446000000    -0.419000000    -6.384000000
C     6.691000000    -1.123000000    -4.320000000
H     7.658000000    -0.638000000    -4.222000000
C     6.125000000    -1.971000000    -3.352000000
C     4.868000000    -2.585000000    -3.603000000
H     4.375000000    -3.289000000    -2.938000000
C     0.064000000    -2.272000000    -1.345000000
H    -0.336000000    -3.000000000    -2.047000000
C    -0.506000000    -1.034000000    -1.116000000
H    -1.328000000    -0.564000000    -1.650000000
C     0.138000000    -0.075000000    -0.264000000
C    -0.353000000     1.333000000    -0.135000000
H     0.401000000     1.992000000     0.299000000
H    -0.563000000     1.749000000    -1.123000000
H    -1.357000000     1.445000000     0.279000000
C     1.256000000    -0.574000000     0.500000000
H     1.701000000     0.077000000     1.248000000
C     1.801000000    -1.834000000     0.245000000
H     2.587000000    -2.263000000     0.861000000
C     1.200000000    -2.687000000    -0.658000000
C     1.683000000    -4.179000000    -0.650000000
O     2.633000000    -4.490000000     0.091000000
O     1.291000000    -4.911000000    -1.490000000
O     6.087000000    -6.472000000     2.750000000
H     6.725000000    -5.801000000     2.505000000
H     5.299000000    -6.246000000     2.256000000
O     2.689000000    -6.295000000     4.387000000
H     3.319000000    -5.916000000     5.001000000
H     3.120000000    -6.234000000     3.534000000
O     2.659000000    -7.095000000    -1.126000000
H     1.858000000    -7.578000000    -0.928000000
H     2.356000000    -6.225000000    -1.388000000
O    -0.888000000    -5.996000000    -0.196000000
H    -0.190000000    -5.724000000    -0.791000000
H    -0.530000000    -5.845000000     0.678000000
O    -3.516000000    -5.757000000    -0.374000000
H    -3.574000000    -6.124000000    -1.256000000
H    -2.579000000    -5.741000000    -0.182000000
O     4.830000000    -5.529000000    -0.847000000
H     4.086000000    -6.130000000    -0.872000000
H     4.459000000    -4.701000000    -0.541000000
O    -1.174000000    -6.569000000    -6.080000000
H    -2.119000000    -6.602000000    -5.930000000
H    -0.826000000    -6.109000000    -5.317000000
O    -1.543000000    -8.582000000    -0.636000000
H    -1.713000000    -8.692000000    -1.572000000
H    -1.646000000    -7.643000000    -0.482000000
O    -3.135000000    -6.503000000    -2.982000000
H    -2.193000000    -6.334000000    -2.970000000
H    -3.433000000    -6.137000000    -3.815000000
O     2.972000000    -5.458000000    -6.541000000
H     3.063000000    -6.109000000    -5.845000000
H     3.321000000    -4.651000000    -6.162000000
O     3.490000000    -6.653000000    -4.267000000
H     3.130000000    -7.250000000    -3.611000000
H     4.389000000    -6.496000000    -3.980000000
O     6.078000000    -8.572000000     0.271000000
H     5.449000000    -9.277000000     0.111000000
H     5.676000000    -7.799000000    -0.124000000
O     2.412000000    -9.701000000     1.537000000
H     3.022000000   -10.320000000     1.135000000
H     1.554000000    -9.955000000     1.197000000
O     6.033000000    -6.240000000    -3.029000000
H     5.656000000    -6.042000000    -2.172000000
H     6.967000000    -6.052000000    -2.929000000
O     3.571000000    -6.076000000     1.781000000
H     3.226000000    -5.538000000     1.070000000
H     3.150000000    -6.928000000     1.663000000
O     0.439000000    -8.365000000    -3.233000000
H     0.748000000    -9.138000000    -2.761000000
H     0.411000000    -8.640000000    -4.150000000
O     0.457000000    -5.741000000     2.262000000
H     1.026000000    -5.304000000     1.629000000
H     0.823000000    -5.506000000     3.115000000
O    -1.543000000    -7.001000000     3.870000000
H    -2.408000000    -6.600000000     3.781000000
H    -1.051000000    -6.676000000     3.116000000
O    -0.519000000    -5.786000000    -3.454000000
H    -0.061000000    -6.625000000    -3.497000000
H    -0.071000000    -5.303000000    -2.760000000
