218
-1467.76783
C    -1.874000000    -1.341000000     4.689000000
H    -2.707000000    -0.700000000     4.414000000
C    -0.535000000    -0.899000000     4.648000000
C     0.451000000    -1.840000000     4.831000000
H     1.476000000    -1.504000000     4.696000000
C    -0.255000000     0.466000000     4.105000000
O    -1.356000000     1.336000000     4.498000000
H    -0.101000000     0.360000000     3.021000000
O     0.978000000     1.016000000     4.602000000
C     1.778000000     1.759000000     3.733000000
C     2.852000000     1.068000000     3.134000000
H     3.030000000     0.049000000     3.469000000
C     3.739000000     1.734000000     2.337000000
O     4.859000000     1.119000000     1.790000000
C     3.393000000     3.055000000     1.919000000
C     4.076000000     3.760000000     0.752000000
H     3.865000000     4.829000000     0.819000000
C     3.561000000     3.360000000    -0.606000000
C     2.435000000     4.027000000    -1.187000000
H     2.051000000     4.932000000    -0.723000000
H     5.165000000     3.697000000     0.814000000
C     2.290000000     3.665000000     2.477000000
H     2.068000000     4.657000000     2.091000000
C     1.419000000     3.061000000     3.360000000
C     0.262000000     3.822000000     3.868000000
H     0.430000000     4.887000000     3.692000000
H     0.150000000     3.735000000     4.950000000
C    -1.055000000     3.403000000     3.185000000
C    -1.493000000     4.169000000     2.141000000
H    -1.062000000     5.155000000     1.985000000
C    -1.771000000     2.230000000     3.513000000
C    -2.873000000     1.823000000     2.753000000
H    -3.444000000     0.918000000     2.942000000
C    -3.350000000     2.575000000     1.694000000
O    -4.329000000     2.140000000     0.881000000
C    -3.995000000     1.464000000    -0.301000000
C    -4.716000000     0.136000000    -0.475000000
C    -4.823000000    -0.429000000    -1.747000000
H    -4.233000000     0.028000000    -2.537000000
C    -5.427000000    -0.445000000     0.633000000
H    -5.464000000    -0.107000000     1.665000000
O    -4.113000000     2.394000000    -1.410000000
H    -2.919000000     1.287000000    -0.151000000
C    -2.645000000     3.765000000     1.392000000
C    -3.012000000     4.615000000     0.162000000
H    -2.733000000     5.667000000     0.246000000
H    -4.090000000     4.645000000    -0.009000000
C    -2.457000000     4.201000000    -1.150000000
C    -1.163000000     4.657000000    -1.605000000
H    -0.686000000     5.400000000    -0.971000000
C    -3.040000000     3.124000000    -1.853000000
C    -2.333000000     2.586000000    -2.965000000
H    -2.747000000     1.643000000    -3.314000000
C    -1.089000000     2.993000000    -3.359000000
O    -0.409000000     2.316000000    -4.300000000
C     0.471000000     1.273000000    -3.849000000
C     0.360000000    -0.044000000    -4.678000000
C    -0.783000000    -0.366000000    -5.384000000
H    -1.582000000     0.334000000    -5.611000000
C     1.233000000    -0.991000000    -4.384000000
H     2.116000000    -0.863000000    -3.763000000
O     1.840000000     1.765000000    -4.010000000
H     0.345000000     1.045000000    -2.780000000
C    -0.536000000     4.105000000    -2.724000000
C     0.880000000     4.481000000    -3.138000000
H     1.063000000     5.538000000    -2.930000000
H     0.985000000     4.429000000    -4.223000000
C     1.961000000     3.627000000    -2.437000000
C     2.413000000     2.427000000    -2.922000000
C     3.445000000     1.771000000    -2.329000000
H     3.640000000     0.807000000    -2.793000000
C     4.100000000     2.201000000    -1.194000000
O     4.997000000     1.410000000    -0.589000000
C     4.563000000     0.529000000     0.479000000
H     3.473000000     0.405000000     0.394000000
C     5.149000000    -0.864000000     0.379000000
C     5.060000000    -1.727000000     1.555000000
H     4.736000000    -1.396000000     2.539000000
C     5.447000000    -1.456000000    -0.848000000
H     5.376000000    -0.914000000    -1.788000000
C     5.804000000    -2.867000000    -0.950000000
O     6.237000000    -3.301000000    -2.194000000
C     5.892000000    -3.669000000     0.269000000
H     6.304000000    -4.674000000     0.235000000
C     5.450000000    -3.060000000     1.476000000
O     5.311000000    -3.963000000     2.538000000
C     4.576000000    -3.645000000     3.691000000
C     3.215000000    -3.961000000     3.817000000
H     2.709000000    -4.373000000     2.947000000
C     5.302000000    -3.159000000     4.799000000
H     6.381000000    -3.071000000     4.699000000
C     4.603000000    -2.848000000     5.964000000
H     5.258000000    -2.476000000     6.747000000
C     3.209000000    -3.167000000     6.117000000
H     2.678000000    -2.883000000     7.021000000
C     2.535000000    -3.789000000     5.079000000
O     1.211000000    -4.110000000     5.197000000
C     0.176000000    -3.184000000     5.062000000
C    -1.170000000    -3.628000000     5.208000000
H    -1.417000000    -4.629000000     5.551000000
C    -2.182000000    -2.708000000     5.054000000
O    -3.456000000    -3.289000000     5.129000000
C    -4.555000000    -2.559000000     4.589000000
C    -5.054000000    -2.811000000     3.296000000
H    -4.723000000    -3.650000000     2.690000000
C    -5.096000000    -1.576000000     5.331000000
H    -4.734000000    -1.405000000     6.342000000
C    -6.095000000    -0.689000000     4.795000000
H    -6.529000000     0.197000000     5.252000000
C    -6.685000000    -1.062000000     3.606000000
H    -7.572000000    -0.608000000     3.172000000
C    -6.173000000    -2.120000000     2.835000000
O    -6.648000000    -2.328000000     1.539000000
C    -6.051000000    -1.684000000     0.405000000
C    -6.128000000    -2.189000000    -0.858000000
H    -6.734000000    -3.067000000    -1.068000000
C    -5.495000000    -1.600000000    -1.945000000
O    -5.655000000    -2.231000000    -3.187000000
C    -5.122000000    -1.710000000    -4.362000000
C    -3.816000000    -2.027000000    -4.801000000
H    -3.160000000    -2.657000000    -4.206000000
C    -5.978000000    -0.983000000    -5.180000000
H    -6.989000000    -0.905000000    -4.787000000
C    -5.527000000    -0.585000000    -6.428000000
H    -6.249000000    -0.119000000    -7.093000000
C    -4.223000000    -0.936000000    -6.872000000
H    -3.897000000    -0.678000000    -7.876000000
C    -3.379000000    -1.655000000    -6.039000000
O    -2.055000000    -1.944000000    -6.538000000
C    -0.895000000    -1.663000000    -5.903000000
C     0.128000000    -2.582000000    -5.761000000
H    -0.067000000    -3.581000000    -6.143000000
C     1.265000000    -2.170000000    -5.149000000
O     2.277000000    -3.096000000    -4.867000000
C     3.598000000    -2.689000000    -4.629000000
C     4.221000000    -1.590000000    -5.273000000
H     3.569000000    -0.961000000    -5.874000000
C     5.529000000    -1.262000000    -5.086000000
H     5.989000000    -0.402000000    -5.565000000
C     6.246000000    -1.981000000    -4.167000000
H     7.242000000    -1.604000000    -3.949000000
C     5.623000000    -2.885000000    -3.309000000
C     4.324000000    -3.359000000    -3.627000000
H     3.877000000    -4.127000000    -3.001000000
C    -0.283000000    -1.603000000    -1.563000000
H    -0.793000000    -2.034000000    -2.421000000
C    -0.525000000    -0.322000000    -1.146000000
H    -1.326000000     0.297000000    -1.541000000
C     0.271000000     0.138000000    -0.074000000
C    -0.068000000     1.487000000     0.417000000
H     0.797000000     1.777000000     1.016000000
H    -0.089000000     2.263000000    -0.351000000
H    -0.982000000     1.438000000     1.014000000
C     1.278000000    -0.650000000     0.523000000
H     1.898000000    -0.231000000     1.312000000
C     1.514000000    -1.887000000     0.034000000
H     2.350000000    -2.481000000     0.394000000
C     0.773000000    -2.422000000    -1.012000000
C     0.947000000    -3.810000000    -1.535000000
O     1.753000000    -4.570000000    -1.021000000
O     0.259000000    -4.250000000    -2.405000000
O     0.081000000    -6.436000000    -6.936000000
H    -0.533000000    -5.759000000    -7.222000000
H     0.942000000    -6.027000000    -7.020000000
O     0.222000000    -5.456000000     2.067000000
H    -0.503000000    -4.925000000     1.736000000
H    -0.087000000    -5.783000000     2.912000000
O     6.267000000    -6.999000000    -2.064000000
H     6.560000000    -7.168000000    -1.168000000
H     5.347000000    -6.752000000    -1.972000000
O     1.939000000    -5.817000000    -4.393000000
H     2.284000000    -5.440000000    -5.202000000
H     1.376000000    -5.134000000    -4.031000000
O    -1.502000000    -8.327000000    -3.207000000
H    -0.732000000    -8.850000000    -3.429000000
H    -1.284000000    -7.924000000    -2.367000000
O    -4.230000000    -5.921000000     1.749000000
H    -3.362000000    -5.712000000     1.405000000
H    -4.065000000    -6.242000000     2.636000000
O    -3.466000000    -7.511000000    -0.703000000
H    -2.734000000    -6.944000000    -0.946000000
H    -4.241000000    -7.054000000    -1.030000000
O     1.819000000    -8.497000000    -3.374000000
H     1.667000000    -7.818000000    -4.032000000
H     2.535000000    -8.155000000    -2.839000000
O     2.676000000    -5.880000000     0.863000000
H     2.493000000    -5.352000000     0.086000000
H     1.818000000    -6.022000000     1.264000000
O    -2.113000000    -6.286000000    -5.211000000
H    -1.800000000    -5.923000000    -6.040000000
H    -1.583000000    -7.072000000    -5.079000000
O    -3.241000000    -3.648000000    -0.813000000
H    -2.908000000    -4.002000000    -1.638000000
H    -4.161000000    -3.453000000    -0.990000000
O     1.085000000    -9.141000000    -0.165000000
H     1.881000000    -8.610000000    -0.140000000
H     0.423000000    -8.563000000    -0.546000000
O     4.839000000    -6.894000000     2.008000000
H     5.648000000    -6.788000000     1.508000000
H     4.221000000    -6.292000000     1.594000000
O     4.150000000    -8.500000000    -0.250000000
H     4.061000000    -8.244000000     0.667000000
H     4.049000000    -7.683000000    -0.738000000
O     3.516000000    -6.412000000    -2.142000000
H     3.207000000    -6.529000000    -3.041000000
H     2.860000000    -5.846000000    -1.735000000
O    -1.901000000    -4.004000000     1.456000000
H    -2.258000000    -3.493000000     0.730000000
H    -1.870000000    -3.390000000     2.189000000
O    -2.154000000    -5.230000000    -2.810000000
H    -2.214000000    -5.652000000    -3.668000000
H    -1.246000000    -4.932000000    -2.753000000
O     2.136000000    -7.629000000     3.389000000
H     2.756000000    -7.001000000     3.018000000
H     2.167000000    -7.468000000     4.332000000
O    -0.217000000    -6.703000000    -0.924000000
H     0.432000000    -6.165000000    -1.378000000
H    -0.773000000    -6.073000000    -0.465000000
