218
-1445.06138
C    -1.226000000    -1.572000000     4.346000000
H    -2.170000000    -1.315000000     3.872000000
C    -0.271000000    -0.552000000     4.578000000
C     0.949000000    -0.943000000     5.170000000
H     1.741000000    -0.225000000     5.365000000
C    -0.566000000     0.869000000     4.116000000
O    -1.881000000     1.335000000     4.432000000
H    -0.429000000     0.742000000     3.032000000
O     0.373000000     1.781000000     4.723000000
C     0.943000000     2.672000000     3.885000000
C     2.145000000     2.319000000     3.267000000
H     2.622000000     1.416000000     3.639000000
C     2.668000000     2.989000000     2.174000000
O     3.747000000     2.368000000     1.629000000
C     1.940000000     4.088000000     1.683000000
C     2.446000000     4.875000000     0.495000000
H     2.083000000     5.905000000     0.491000000
C     2.165000000     4.214000000    -0.850000000
C     1.045000000     4.637000000    -1.513000000
H     0.406000000     5.419000000    -1.109000000
H     3.535000000     4.885000000     0.576000000
C     0.778000000     4.524000000     2.341000000
H     0.238000000     5.346000000     1.879000000
C     0.178000000     3.717000000     3.330000000
C    -1.230000000     4.033000000     3.771000000
H    -1.447000000     5.102000000     3.718000000
H    -1.427000000     3.765000000     4.811000000
C    -2.256000000     3.201000000     2.954000000
C    -2.890000000     3.758000000     1.795000000
H    -2.608000000     4.755000000     1.469000000
C    -2.578000000     1.942000000     3.391000000
C    -3.438000000     1.190000000     2.622000000
H    -3.606000000     0.153000000     2.901000000
C    -4.004000000     1.678000000     1.465000000
O    -4.783000000     0.813000000     0.777000000
C    -4.230000000     0.139000000    -0.402000000
C    -4.737000000    -1.275000000    -0.624000000
C    -4.911000000    -1.830000000    -1.912000000
H    -4.534000000    -1.317000000    -2.794000000
C    -4.964000000    -2.099000000     0.455000000
H    -4.999000000    -1.737000000     1.479000000
O    -4.622000000     0.950000000    -1.544000000
H    -3.131000000     0.143000000    -0.359000000
C    -3.719000000     2.949000000     1.065000000
C    -4.492000000     3.478000000    -0.184000000
H    -4.511000000     4.569000000    -0.177000000
H    -5.536000000     3.209000000    -0.359000000
C    -3.586000000     3.035000000    -1.354000000
C    -2.614000000     3.870000000    -1.876000000
H    -2.345000000     4.810000000    -1.400000000
C    -3.767000000     1.852000000    -1.934000000
C    -2.878000000     1.390000000    -2.903000000
H    -3.037000000     0.378000000    -3.268000000
C    -1.871000000     2.211000000    -3.395000000
O    -1.084000000     1.657000000    -4.293000000
C     0.241000000     1.256000000    -3.874000000
C     0.662000000    -0.180000000    -4.202000000
C    -0.289000000    -1.189000000    -4.268000000
H    -1.319000000    -0.899000000    -4.077000000
C     2.002000000    -0.542000000    -4.413000000
H     2.780000000     0.215000000    -4.352000000
O     1.167000000     2.259000000    -4.359000000
H     0.261000000     1.271000000    -2.774000000
C    -1.729000000     3.511000000    -2.908000000
C    -0.605000000     4.406000000    -3.419000000
H    -0.876000000     5.425000000    -3.133000000
H    -0.455000000     4.307000000    -4.496000000
C     0.712000000     4.038000000    -2.689000000
C     1.543000000     3.020000000    -3.259000000
C     2.678000000     2.646000000    -2.536000000
H     3.299000000     1.854000000    -2.946000000
C     2.981000000     3.230000000    -1.346000000
O     4.028000000     2.724000000    -0.639000000
C     3.653000000     1.741000000     0.404000000
H     2.595000000     1.443000000     0.395000000
C     4.663000000     0.606000000     0.388000000
C     4.511000000    -0.302000000     1.438000000
H     3.738000000    -0.134000000     2.183000000
C     5.568000000     0.360000000    -0.670000000
H     5.672000000     1.179000000    -1.377000000
C     6.321000000    -0.865000000    -0.714000000
O     7.095000000    -1.183000000    -1.778000000
C     6.215000000    -1.706000000     0.394000000
H     6.747000000    -2.651000000     0.473000000
C     5.270000000    -1.465000000     1.415000000
O     5.251000000    -2.302000000     2.500000000
C     4.983000000    -1.957000000     3.761000000
C     4.009000000    -2.654000000     4.441000000
H     3.555000000    -3.501000000     3.932000000
C     5.572000000    -0.823000000     4.414000000
H     6.223000000    -0.246000000     3.763000000
C     5.165000000    -0.469000000     5.715000000
H     5.748000000     0.245000000     6.292000000
C     4.191000000    -1.261000000     6.408000000
H     3.912000000    -1.061000000     7.439000000
C     3.573000000    -2.287000000     5.730000000
O     2.363000000    -2.702000000     6.160000000
C     1.158000000    -2.249000000     5.535000000
C     0.232000000    -3.243000000     5.183000000
H     0.520000000    -4.256000000     5.454000000
C    -1.023000000    -2.939000000     4.639000000
O    -1.900000000    -3.976000000     4.496000000
C    -3.235000000    -3.849000000     4.173000000
C    -3.691000000    -4.173000000     2.901000000
H    -3.015000000    -4.419000000     2.085000000
C    -4.113000000    -3.362000000     5.123000000
H    -3.856000000    -2.897000000     6.072000000
C    -5.516000000    -3.382000000     4.859000000
H    -6.347000000    -3.149000000     5.520000000
C    -5.913000000    -3.705000000     3.629000000
H    -6.984000000    -3.663000000     3.450000000
C    -5.051000000    -4.184000000     2.660000000
O    -5.594000000    -4.304000000     1.407000000
C    -5.391000000    -3.444000000     0.275000000
C    -5.728000000    -3.954000000    -1.053000000
H    -6.040000000    -4.994000000    -1.090000000
C    -5.409000000    -3.183000000    -2.087000000
O    -5.389000000    -3.761000000    -3.342000000
C    -4.551000000    -3.369000000    -4.359000000
C    -3.201000000    -3.395000000    -4.182000000
H    -2.804000000    -3.668000000    -3.208000000
C    -5.082000000    -2.951000000    -5.564000000
H    -6.146000000    -2.827000000    -5.746000000
C    -4.216000000    -2.721000000    -6.601000000
H    -4.569000000    -2.371000000    -7.568000000
C    -2.806000000    -2.864000000    -6.429000000
H    -2.076000000    -2.742000000    -7.225000000
C    -2.276000000    -3.223000000    -5.160000000
O    -1.006000000    -3.500000000    -4.859000000
C     0.017000000    -2.495000000    -4.644000000
C     1.404000000    -2.843000000    -4.814000000
H     1.703000000    -3.881000000    -4.934000000
C     2.363000000    -1.856000000    -4.705000000
O     3.652000000    -2.317000000    -4.910000000
C     4.789000000    -1.663000000    -4.557000000
C     5.353000000    -0.741000000    -5.436000000
H     4.932000000    -0.575000000    -6.424000000
C     6.490000000    -0.015000000    -5.122000000
H     6.910000000     0.669000000    -5.855000000
C     7.146000000    -0.205000000    -3.919000000
H     8.077000000     0.286000000    -3.645000000
C     6.529000000    -1.051000000    -2.992000000
C     5.384000000    -1.773000000    -3.333000000
H     4.933000000    -2.418000000    -2.583000000
C    -0.093000000    -2.817000000    -0.081000000
H    -0.566000000    -3.560000000    -0.718000000
C    -0.260000000    -1.460000000    -0.353000000
H    -0.797000000    -1.098000000    -1.226000000
C     0.207000000    -0.521000000     0.567000000
C    -0.014000000     0.928000000     0.390000000
H     0.214000000     1.489000000     1.299000000
H     0.567000000     1.216000000    -0.489000000
H    -1.048000000     1.067000000     0.070000000
C     0.936000000    -0.918000000     1.646000000
H     1.378000000    -0.186000000     2.317000000
C     1.282000000    -2.256000000     1.837000000
H     1.953000000    -2.607000000     2.616000000
C     0.749000000    -3.262000000     0.951000000
C     0.831000000    -4.674000000     1.279000000
O     1.630000000    -5.087000000     2.150000000
O     0.138000000    -5.459000000     0.725000000
O    -1.334000000    -9.066000000    -0.874000000
H    -0.641000000    -9.716000000    -0.759000000
H    -2.147000000    -9.566000000    -0.792000000
O     1.269000000   -10.440000000     2.720000000
H     1.658000000    -9.899000000     2.033000000
H     0.880000000    -9.812000000     3.328000000
O    -0.165000000    -6.158000000    -3.911000000
H    -0.396000000    -5.263000000    -4.158000000
H    -0.694000000    -6.337000000    -3.134000000
O     1.276000000    -7.600000000    -0.496000000
H     1.734000000    -8.156000000     0.134000000
H     0.714000000    -7.041000000     0.041000000
O    -1.929000000    -6.771000000     2.323000000
H    -1.423000000    -6.254000000     1.696000000
H    -1.297000000    -7.390000000     2.690000000
O     1.459000000    -9.179000000    -2.836000000
H     1.045000000    -9.946000000    -2.441000000
H     1.762000000    -8.660000000    -2.091000000
O     3.112000000    -2.372000000    -1.068000000
H     2.380000000    -2.970000000    -1.211000000
H     2.789000000    -1.749000000    -0.416000000
O     0.681000000    -6.856000000     6.916000000
H     0.643000000    -6.356000000     6.101000000
H     1.464000000    -6.530000000     7.361000000
O     1.579000000    -5.021000000    -2.010000000
H     0.978000000    -5.401000000    -2.651000000
H     1.474000000    -5.567000000    -1.231000000
O     3.990000000    -6.980000000     4.973000000
H     4.502000000    -6.172000000     5.017000000
H     4.160000000    -7.323000000     4.095000000
O     4.339000000    -5.671000000    -3.898000000
H     4.415000000    -6.346000000    -3.223000000
H     3.557000000    -5.175000000    -3.654000000
O     5.485000000    -4.448000000    -0.948000000
H     4.784000000    -3.798000000    -0.997000000
H     5.035000000    -5.291000000    -1.008000000
O    -1.336000000    -8.637000000     4.175000000
H    -2.123000000    -8.449000000     4.686000000
H    -0.739000000    -7.917000000     4.380000000
O     0.918000000    -6.842000000     3.950000000
H     1.797000000    -7.216000000     4.010000000
H     0.975000000    -6.214000000     3.230000000
O     6.701000000    -4.920000000     2.795000000
H     6.114000000    -5.668000000     2.681000000
H     6.718000000    -4.496000000     1.937000000
O     2.735000000    -9.300000000     0.698000000
H     2.653000000   -10.211000000     0.418000000
H     3.674000000    -9.120000000     0.658000000
O     5.631000000    -7.375000000     2.381000000
H     6.119000000    -7.732000000     1.638000000
H     4.870000000    -6.951000000     1.985000000
O    -1.602000000    -6.408000000    -1.406000000
H    -1.443000000    -7.349000000    -1.326000000
H    -1.033000000    -6.012000000    -0.745000000
O     3.754000000    -6.295000000     0.956000000
H     3.405000000    -6.488000000     0.086000000
H     3.055000000    -5.806000000     1.392000000
