218
-1463.95591
C    -2.518000000    -1.619000000     4.509000000
H    -3.438000000    -1.372000000     3.985000000
C    -1.465000000    -0.708000000     4.437000000
C    -0.225000000    -1.039000000     4.954000000
H     0.649000000    -0.407000000     4.821000000
C    -1.631000000     0.658000000     3.834000000
O    -3.015000000     1.118000000     3.931000000
H    -1.357000000     0.653000000     2.769000000
O    -0.791000000     1.631000000     4.492000000
C    -0.167000000     2.628000000     3.824000000
C     1.163000000     2.549000000     3.651000000
H     1.716000000     1.835000000     4.255000000
C     1.873000000     3.311000000     2.745000000
O     3.169000000     2.967000000     2.483000000
C     1.193000000     4.305000000     2.046000000
C     1.804000000     5.133000000     0.968000000
H     1.213000000     6.034000000     0.791000000
C     1.857000000     4.471000000    -0.384000000
C     0.809000000     4.688000000    -1.312000000
H    -0.002000000     5.385000000    -1.117000000
H     2.786000000     5.506000000     1.267000000
C    -0.256000000     4.465000000     2.253000000
H    -0.858000000     5.155000000     1.667000000
C    -0.906000000     3.609000000     3.124000000
C    -2.420000000     3.881000000     3.275000000
H    -2.698000000     4.877000000     2.925000000
H    -2.911000000     3.654000000     4.223000000
C    -3.210000000     2.944000000     2.328000000
C    -3.697000000     3.332000000     1.107000000
H    -3.489000000     4.353000000     0.795000000
C    -3.501000000     1.644000000     2.729000000
C    -4.243000000     0.759000000     1.956000000
H    -4.530000000    -0.188000000     2.406000000
C    -4.546000000     1.101000000     0.643000000
O    -5.034000000     0.046000000    -0.101000000
C    -4.129000000    -0.430000000    -1.140000000
C    -4.219000000    -1.940000000    -1.236000000
C    -4.110000000    -2.569000000    -2.500000000
H    -4.319000000    -2.029000000    -3.420000000
C    -3.968000000    -2.751000000    -0.122000000
H    -3.977000000    -2.282000000     0.858000000
O    -4.347000000     0.244000000    -2.420000000
H    -3.077000000    -0.235000000    -0.886000000
C    -4.320000000     2.418000000     0.240000000
C    -4.641000000     2.779000000    -1.156000000
H    -4.751000000     3.865000000    -1.131000000
H    -5.548000000     2.317000000    -1.551000000
C    -3.483000000     2.475000000    -2.050000000
C    -2.542000000     3.420000000    -2.412000000
H    -2.552000000     4.393000000    -1.929000000
C    -3.480000000     1.260000000    -2.695000000
C    -2.427000000     0.928000000    -3.622000000
H    -2.443000000    -0.061000000    -4.073000000
C    -1.412000000     1.864000000    -3.895000000
O    -0.313000000     1.465000000    -4.677000000
C     0.932000000     1.204000000    -3.900000000
C     1.646000000    -0.053000000    -4.421000000
C     0.848000000    -1.164000000    -4.701000000
H    -0.212000000    -1.105000000    -4.465000000
C     3.064000000    -0.112000000    -4.502000000
H     3.667000000     0.752000000    -4.234000000
O     1.798000000     2.343000000    -3.990000000
H     0.687000000     0.957000000    -2.857000000
C    -1.457000000     3.101000000    -3.179000000
C    -0.334000000     4.141000000    -3.438000000
H    -0.839000000     5.083000000    -3.217000000
H     0.012000000     4.297000000    -4.462000000
C     0.793000000     3.940000000    -2.489000000
C     1.853000000     3.081000000    -2.813000000
C     2.956000000     2.910000000    -1.936000000
H     3.890000000     2.439000000    -2.231000000
C     2.891000000     3.568000000    -0.681000000
O     3.872000000     3.298000000     0.251000000
C     3.414000000     2.270000000     1.198000000
H     2.456000000     1.863000000     0.843000000
C     4.375000000     1.126000000     1.355000000
C     4.366000000     0.375000000     2.486000000
H     3.688000000     0.679000000     3.280000000
C     5.147000000     0.630000000     0.267000000
H     5.154000000     1.122000000    -0.702000000
C     6.048000000    -0.420000000     0.423000000
O     6.950000000    -0.716000000    -0.578000000
C     6.097000000    -1.082000000     1.592000000
H     6.854000000    -1.827000000     1.823000000
C     5.145000000    -0.773000000     2.581000000
O     5.022000000    -1.577000000     3.667000000
C     4.329000000    -1.256000000     4.778000000
C     3.240000000    -2.069000000     5.098000000
H     3.069000000    -2.992000000     4.550000000
C     4.613000000    -0.134000000     5.599000000
H     5.512000000     0.457000000     5.445000000
C     3.765000000     0.178000000     6.650000000
H     3.992000000     1.033000000     7.283000000
C     2.596000000    -0.587000000     6.881000000
H     2.003000000    -0.373000000     7.767000000
C     2.403000000    -1.744000000     6.169000000
O     1.256000000    -2.456000000     6.288000000
C     0.036000000    -2.241000000     5.644000000
C    -1.066000000    -3.038000000     5.852000000
H    -0.875000000    -3.903000000     6.481000000
C    -2.281000000    -2.748000000     5.290000000
O    -3.301000000    -3.738000000     5.363000000
C    -4.205000000    -4.047000000     4.311000000
C    -3.667000000    -4.370000000     3.081000000
H    -2.595000000    -4.429000000     2.916000000
C    -5.658000000    -3.950000000     4.512000000
H    -6.147000000    -3.577000000     5.408000000
C    -6.502000000    -4.255000000     3.432000000
H    -7.557000000    -4.001000000     3.494000000
C    -5.881000000    -4.600000000     2.183000000
H    -6.503000000    -4.647000000     1.293000000
C    -4.495000000    -4.690000000     2.044000000
O    -3.887000000    -4.946000000     0.819000000
C    -3.838000000    -4.091000000    -0.282000000
C    -3.655000000    -4.675000000    -1.533000000
H    -3.488000000    -5.741000000    -1.668000000
C    -3.760000000    -3.917000000    -2.686000000
O    -3.639000000    -4.528000000    -3.905000000
C    -2.839000000    -3.998000000    -4.875000000
C    -1.440000000    -4.016000000    -4.840000000
H    -0.933000000    -4.380000000    -3.950000000
C    -3.405000000    -3.551000000    -6.051000000
H    -4.483000000    -3.506000000    -6.183000000
C    -2.662000000    -3.011000000    -7.089000000
H    -2.999000000    -2.613000000    -8.043000000
C    -1.276000000    -2.998000000    -6.974000000
H    -0.642000000    -2.491000000    -7.696000000
C    -0.655000000    -3.475000000    -5.808000000
O     0.661000000    -3.413000000    -5.582000000
C     1.461000000    -2.351000000    -5.086000000
C     2.832000000    -2.437000000    -5.137000000
H     3.346000000    -3.325000000    -5.497000000
C     3.646000000    -1.317000000    -4.790000000
O     5.060000000    -1.362000000    -4.943000000
C     5.926000000    -0.759000000    -4.116000000
C     6.723000000     0.306000000    -4.569000000
H     6.588000000     0.639000000    -5.594000000
C     7.528000000     1.021000000    -3.749000000
H     8.130000000     1.837000000    -4.141000000
C     7.572000000     0.551000000    -2.463000000
H     8.103000000     1.078000000    -1.674000000
C     6.796000000    -0.388000000    -1.922000000
C     5.916000000    -1.068000000    -2.755000000
H     5.146000000    -1.748000000    -2.398000000
C    -0.626000000    -2.420000000    -0.963000000
H    -0.949000000    -3.059000000    -1.780000000
C    -0.729000000    -1.050000000    -0.925000000
H    -0.992000000    -0.619000000    -1.888000000
C    -0.265000000    -0.272000000     0.144000000
C    -0.230000000     1.179000000    -0.051000000
H    -0.514000000     1.640000000     0.898000000
H     0.757000000     1.497000000    -0.393000000
H    -1.039000000     1.626000000    -0.634000000
C     0.329000000    -0.898000000     1.225000000
H     0.695000000    -0.269000000     2.033000000
C     0.414000000    -2.300000000     1.198000000
H     0.883000000    -2.817000000     2.031000000
C     0.018000000    -3.038000000     0.100000000
C     0.011000000    -4.573000000     0.115000000
O     0.328000000    -5.128000000     1.142000000
O     0.030000000    -5.127000000    -0.960000000
O     4.131000000    -6.214000000    -3.765000000
H     4.504000000    -5.600000000    -4.398000000
H     4.250000000    -5.785000000    -2.918000000
O    -0.656000000    -7.066000000    -3.029000000
H    -0.883000000    -6.471000000    -2.313000000
H     0.300000000    -7.106000000    -3.012000000
O    -2.447000000    -9.388000000     2.152000000
H    -2.412000000    -8.442000000     2.012000000
H    -3.354000000    -9.560000000     2.404000000
O     3.067000000    -5.256000000     1.940000000
H     3.591000000    -4.584000000     1.504000000
H     2.173000000    -5.098000000     1.636000000
O    -4.164000000    -8.024000000    -0.294000000
H    -3.788000000    -7.625000000     0.491000000
H    -5.107000000    -8.040000000    -0.127000000
O     3.223000000    -7.685000000    -0.479000000
H     2.974000000    -7.333000000     0.375000000
H     4.055000000    -8.131000000    -0.321000000
O    -0.478000000    -7.721000000     5.860000000
H    -0.601000000    -8.576000000     5.448000000
H    -0.469000000    -7.102000000     5.130000000
O     1.663000000    -7.588000000     2.504000000
H     1.019000000    -7.606000000     1.796000000
H     1.894000000    -6.663000000     2.595000000
O     2.917000000    -1.532000000    -1.483000000
H     2.515000000    -2.360000000    -1.747000000
H     2.390000000    -0.861000000    -1.917000000
O     2.045000000    -7.558000000    -3.010000000
H     2.565000000    -6.917000000    -3.495000000
H     2.579000000    -7.769000000    -2.244000000
O     0.456000000    -7.651000000     0.101000000
H     0.547000000    -8.052000000    -0.763000000
H     0.582000000    -6.715000000    -0.054000000
O    -1.906000000    -6.910000000     1.518000000
H    -2.097000000    -6.041000000     1.871000000
H    -1.106000000    -6.791000000     1.007000000
O    -0.182000000    -5.449000000     3.883000000
H    -0.126000000    -5.598000000     2.939000000
H    -0.378000000    -4.516000000     3.967000000
O     4.304000000    -6.592000000     3.941000000
H     5.220000000    -6.658000000     3.670000000
H     3.897000000    -6.038000000     3.275000000
O     3.791000000    -8.991000000     2.936000000
H     2.921000000    -8.603000000     2.846000000
H     4.301000000    -8.329000000     3.404000000
O     0.304000000   -10.140000000     1.561000000
H     0.583000000   -10.002000000     0.656000000
H    -0.444000000    -9.554000000     1.674000000
O     1.793000000    -3.919000000    -2.636000000
H     1.384000000    -4.220000000    -3.447000000
H     1.483000000    -4.531000000    -1.969000000
O     5.230000000    -5.177000000    -1.328000000
H     4.527000000    -4.671000000    -0.921000000
H     5.365000000    -5.918000000    -0.737000000
O     3.787000000    -3.080000000     0.456000000
H     4.439000000    -2.574000000     0.940000000
H     3.435000000    -2.465000000    -0.187000000
