218
-1486.85897
C    -1.986000000    -2.130000000     4.735000000
H    -3.015000000    -1.814000000     4.580000000
C    -1.010000000    -1.187000000     4.711000000
C     0.315000000    -1.601000000     4.887000000
H     1.125000000    -0.881000000     4.804000000
C    -1.299000000     0.259000000     4.165000000
O    -2.751000000     0.671000000     4.119000000
H    -0.954000000     0.280000000     3.121000000
O    -0.590000000     1.296000000     4.896000000
C     0.028000000     2.295000000     4.117000000
C     1.334000000     2.083000000     3.764000000
H     1.934000000     1.258000000     4.141000000
C     2.014000000     2.988000000     2.938000000
O     3.344000000     2.670000000     2.541000000
C     1.275000000     4.031000000     2.293000000
C     1.880000000     5.029000000     1.368000000
H     1.524000000     6.051000000     1.514000000
C     1.914000000     4.585000000    -0.062000000
C     0.856000000     4.924000000    -0.869000000
H     0.225000000     5.729000000    -0.502000000
H     2.926000000     5.166000000     1.649000000
C    -0.055000000     4.200000000     2.650000000
H    -0.615000000     5.024000000     2.215000000
C    -0.680000000     3.401000000     3.604000000
C    -2.152000000     3.631000000     3.774000000
H    -2.432000000     4.677000000     3.632000000
H    -2.451000000     3.482000000     4.814000000
C    -2.958000000     2.731000000     2.861000000
C    -3.412000000     3.293000000     1.661000000
H    -3.000000000     4.283000000     1.486000000
C    -3.288000000     1.327000000     3.066000000
C    -3.989000000     0.607000000     2.097000000
H    -4.201000000    -0.433000000     2.329000000
C    -4.479000000     1.243000000     0.971000000
O    -5.118000000     0.507000000     0.086000000
C    -4.332000000     0.027000000    -1.001000000
C    -4.398000000    -1.515000000    -1.268000000
C    -4.504000000    -1.969000000    -2.569000000
H    -4.526000000    -1.276000000    -3.407000000
C    -4.337000000    -2.421000000    -0.163000000
H    -4.248000000    -2.039000000     0.851000000
O    -4.540000000     0.853000000    -2.149000000
H    -3.276000000     0.228000000    -0.768000000
C    -4.265000000     2.606000000     0.741000000
C    -4.641000000     3.269000000    -0.578000000
H    -4.699000000     4.352000000    -0.450000000
H    -5.637000000     2.980000000    -0.921000000
C    -3.621000000     2.956000000    -1.623000000
C    -2.628000000     3.878000000    -1.921000000
H    -2.617000000     4.862000000    -1.457000000
C    -3.601000000     1.767000000    -2.397000000
C    -2.627000000     1.476000000    -3.322000000
H    -2.715000000     0.524000000    -3.839000000
C    -1.613000000     2.374000000    -3.554000000
O    -0.533000000     2.097000000    -4.377000000
C     0.508000000     1.469000000    -3.661000000
C     1.050000000     0.246000000    -4.428000000
C     0.142000000    -0.596000000    -5.109000000
H    -0.867000000    -0.268000000    -5.346000000
C     2.365000000    -0.114000000    -4.313000000
H     3.119000000     0.592000000    -3.972000000
O     1.516000000     2.522000000    -3.645000000
H     0.209000000     1.170000000    -2.646000000
C    -1.604000000     3.571000000    -2.785000000
C    -0.556000000     4.696000000    -3.083000000
H    -0.842000000     5.715000000    -2.814000000
H    -0.291000000     4.631000000    -4.140000000
C     0.746000000     4.396000000    -2.218000000
C     1.642000000     3.317000000    -2.539000000
C     2.781000000     3.013000000    -1.734000000
H     3.482000000     2.218000000    -1.973000000
C     2.843000000     3.619000000    -0.449000000
O     3.888000000     3.173000000     0.407000000
C     3.575000000     2.086000000     1.312000000
H     2.654000000     1.589000000     0.974000000
C     4.768000000     1.091000000     1.334000000
C     5.116000000     0.420000000     2.457000000
H     4.604000000     0.547000000     3.407000000
C     5.496000000     0.766000000     0.121000000
H     5.310000000     1.348000000    -0.778000000
C     6.371000000    -0.338000000     0.056000000
O     7.051000000    -0.645000000    -1.063000000
C     6.635000000    -0.980000000     1.259000000
H     7.233000000    -1.887000000     1.226000000
C     6.030000000    -0.652000000     2.479000000
O     6.164000000    -1.473000000     3.622000000
C     5.200000000    -1.658000000     4.561000000
C     4.043000000    -2.394000000     4.333000000
H     3.864000000    -2.851000000     3.363000000
C     5.542000000    -1.350000000     5.878000000
H     6.518000000    -0.920000000     6.084000000
C     4.586000000    -1.558000000     6.875000000
H     4.823000000    -1.224000000     7.882000000
C     3.376000000    -2.103000000     6.647000000
H     2.615000000    -2.203000000     7.417000000
C     3.087000000    -2.605000000     5.415000000
O     1.947000000    -3.373000000     5.140000000
C     0.629000000    -2.915000000     5.117000000
C    -0.372000000    -3.829000000     5.168000000
H    -0.184000000    -4.899000000     5.124000000
C    -1.682000000    -3.417000000     5.037000000
O    -2.688000000    -4.380000000     5.082000000
C    -3.716000000    -4.354000000     4.122000000
C    -3.357000000    -4.492000000     2.787000000
H    -2.316000000    -4.728000000     2.583000000
C    -5.030000000    -4.012000000     4.465000000
H    -5.264000000    -3.750000000     5.493000000
C    -6.042000000    -3.960000000     3.538000000
H    -7.064000000    -3.695000000     3.795000000
C    -5.702000000    -4.231000000     2.235000000
H    -6.471000000    -4.313000000     1.471000000
C    -4.368000000    -4.549000000     1.846000000
O    -4.037000000    -4.698000000     0.531000000
C    -4.245000000    -3.759000000    -0.480000000
C    -4.305000000    -4.181000000    -1.823000000
H    -4.467000000    -5.226000000    -2.074000000
C    -4.456000000    -3.308000000    -2.897000000
O    -4.352000000    -3.800000000    -4.214000000
C    -3.691000000    -3.185000000    -5.231000000
C    -2.303000000    -3.157000000    -5.180000000
H    -1.779000000    -3.501000000    -4.292000000
C    -4.369000000    -2.739000000    -6.339000000
H    -5.456000000    -2.733000000    -6.342000000
C    -3.716000000    -2.172000000    -7.400000000
H    -4.201000000    -1.781000000    -8.291000000
C    -2.302000000    -2.143000000    -7.385000000
H    -1.711000000    -1.727000000    -8.197000000
C    -1.610000000    -2.726000000    -6.318000000
O    -0.217000000    -2.730000000    -6.287000000
C     0.585000000    -1.840000000    -5.628000000
C     2.021000000    -2.152000000    -5.461000000
H     2.362000000    -3.120000000    -5.817000000
C     2.880000000    -1.314000000    -4.832000000
O     4.187000000    -1.707000000    -4.798000000
C     5.235000000    -1.007000000    -4.261000000
C     6.052000000    -0.285000000    -5.069000000
H     5.778000000    -0.091000000    -6.103000000
C     7.260000000     0.298000000    -4.580000000
H     7.988000000     0.823000000    -5.193000000
C     7.492000000     0.219000000    -3.204000000
H     8.405000000     0.623000000    -2.775000000
C     6.625000000    -0.461000000    -2.358000000
C     5.494000000    -1.039000000    -2.868000000
H     4.859000000    -1.576000000    -2.168000000
C    -0.343000000    -2.413000000    -0.503000000
H    -0.786000000    -3.099000000    -1.221000000
C    -0.665000000    -1.051000000    -0.494000000
H    -1.444000000    -0.662000000    -1.146000000
C    -0.070000000    -0.143000000     0.407000000
C    -0.404000000     1.278000000     0.315000000
H     0.393000000     1.864000000    -0.146000000
H    -1.211000000     1.310000000    -0.419000000
H    -0.730000000     1.634000000     1.295000000
C     0.725000000    -0.657000000     1.501000000
H     1.233000000     0.069000000     2.131000000
C     1.050000000    -2.026000000     1.421000000
H     1.770000000    -2.390000000     2.149000000
C     0.530000000    -2.924000000     0.477000000
C     0.754000000    -4.442000000     0.674000000
O     1.759000000    -4.809000000     1.224000000
O    -0.032000000    -5.230000000     0.210000000
O    -1.061000000    -5.743000000    -2.211000000
H    -0.802000000    -5.378000000    -1.365000000
H    -0.981000000    -6.690000000    -2.098000000
O     1.841000000    -7.359000000     0.119000000
H     1.433000000    -6.500000000     0.231000000
H     2.533000000    -7.383000000     0.780000000
O    -2.916000000    -7.921000000     1.735000000
H    -2.221000000    -7.369000000     2.093000000
H    -2.506000000    -8.778000000     1.619000000
O    -2.668000000    -7.630000000    -3.664000000
H    -2.048000000    -6.923000000    -3.481000000
H    -3.495000000    -7.183000000    -3.843000000
O     2.289000000    -8.626000000    -2.642000000
H     3.023000000    -8.642000000    -2.027000000
H     1.577000000    -8.214000000    -2.153000000
O     4.510000000    -8.914000000    -1.048000000
H     5.409000000    -8.984000000    -1.369000000
H     4.603000000    -8.702000000    -0.119000000
O     3.195000000    -6.505000000    -4.368000000
H     2.408000000    -5.984000000    -4.211000000
H     3.056000000    -7.307000000    -3.864000000
O     0.417000000    -8.694000000     4.185000000
H     1.208000000    -8.203000000     3.962000000
H    -0.239000000    -8.388000000     3.558000000
O    -0.344000000    -8.181000000    -1.087000000
H    -0.850000000    -8.845000000    -0.619000000
H     0.198000000    -7.773000000    -0.411000000
O     2.614000000    -1.147000000    -1.289000000
H     3.143000000    -1.201000000    -0.493000000
H     1.725000000    -1.351000000    -0.999000000
O     2.095000000   -10.200000000     0.003000000
H     2.751000000   -10.367000000    -0.674000000
H     2.028000000    -9.246000000     0.042000000
O    -0.458000000    -7.069000000     2.095000000
H     0.300000000    -6.764000000     2.594000000
H    -0.515000000    -6.466000000     1.354000000
O     2.094000000    -6.708000000     3.259000000
H     2.030000000    -5.988000000     2.632000000
H     2.557000000    -6.333000000     4.008000000
O     5.845000000    -5.126000000    -2.947000000
H     5.678000000    -6.060000000    -2.817000000
H     4.987000000    -4.755000000    -3.150000000
O     4.055000000    -3.599000000     0.117000000
H     3.287000000    -4.040000000     0.482000000
H     3.887000000    -3.567000000    -0.825000000
O     5.158000000    -8.576000000     1.725000000
H     4.599000000    -7.978000000     2.222000000
H     5.110000000    -9.403000000     2.205000000
O     5.602000000    -4.723000000     2.560000000
H     4.960000000    -4.378000000     1.939000000
H     6.232000000    -5.196000000     2.016000000
O     0.877000000    -5.008000000    -3.903000000
H     0.436000000    -5.234000000    -4.722000000
H     0.168000000    -4.916000000    -3.267000000
O     3.008000000    -3.725000000    -2.413000000
H     2.951000000    -2.782000000    -2.568000000
H     2.307000000    -4.098000000    -2.948000000
