218
-1468.93437
C    -2.490000000    -1.427000000    -4.306000000
H    -2.451000000    -0.382000000    -4.604000000
C    -3.081000000    -1.700000000    -3.119000000
C    -3.330000000    -2.994000000    -2.727000000
H    -3.742000000    -3.179000000    -1.738000000
C    -3.636000000    -0.557000000    -2.328000000
O    -3.804000000     0.595000000    -3.166000000
H    -2.909000000    -0.270000000    -1.554000000
O    -4.864000000    -0.959000000    -1.699000000
C    -4.800000000    -0.535000000    -0.391000000
C    -4.425000000    -1.431000000     0.540000000
H    -4.413000000    -2.494000000     0.312000000
C    -4.060000000    -1.067000000     1.854000000
O    -3.677000000    -1.973000000     2.789000000
C    -4.232000000     0.216000000     2.280000000
C    -4.024000000     0.724000000     3.780000000
H    -4.666000000     1.596000000     3.922000000
C    -2.546000000     1.064000000     4.122000000
C    -2.043000000     2.357000000     3.874000000
H    -2.693000000     3.115000000     3.443000000
H    -4.523000000    -0.026000000     4.397000000
C    -4.626000000     1.133000000     1.336000000
H    -4.882000000     2.147000000     1.633000000
C    -4.745000000     0.784000000     0.012000000
C    -4.994000000     1.914000000    -0.976000000
H    -5.598000000     2.716000000    -0.547000000
H    -5.722000000     1.663000000    -1.750000000
C    -3.740000000     2.467000000    -1.622000000
C    -3.112000000     3.577000000    -1.141000000
H    -3.436000000     4.053000000    -0.219000000
C    -3.299000000     1.831000000    -2.818000000
C    -2.082000000     2.298000000    -3.410000000
H    -1.675000000     1.794000000    -4.283000000
C    -1.369000000     3.406000000    -2.870000000
O    -0.107000000     3.761000000    -3.333000000
C     0.898000000     3.236000000    -2.431000000
C     1.995000000     2.631000000    -3.257000000
C     3.349000000     2.703000000    -2.900000000
H     3.692000000     3.250000000    -2.025000000
C     1.604000000     1.869000000    -4.351000000
H     0.583000000     1.697000000    -4.682000000
O     1.394000000     4.319000000    -1.632000000
H     0.496000000     2.453000000    -1.771000000
C    -1.923000000     4.126000000    -1.764000000
C    -1.283000000     5.266000000    -1.074000000
H    -2.029000000     5.810000000    -0.492000000
H    -0.793000000     5.877000000    -1.835000000
C    -0.322000000     4.806000000    -0.031000000
C    -0.683000000     4.693000000     1.328000000
H    -1.695000000     4.918000000     1.654000000
C     1.009000000     4.425000000    -0.349000000
C     1.932000000     4.082000000     0.648000000
H     2.903000000     3.740000000     0.301000000
C     1.488000000     3.901000000     1.981000000
O     2.370000000     3.327000000     2.901000000
C     2.258000000     1.858000000     3.105000000
C     3.640000000     1.136000000     3.049000000
C     4.643000000     1.607000000     2.178000000
H     4.577000000     2.538000000     1.619000000
C     3.834000000    -0.056000000     3.733000000
H     3.048000000    -0.493000000     4.344000000
O     1.499000000     1.624000000     4.376000000
H     1.643000000     1.482000000     2.274000000
C     0.209000000     4.273000000     2.359000000
C    -0.276000000     4.098000000     3.842000000
H    -1.070000000     4.816000000     4.057000000
H     0.525000000     4.290000000     4.560000000
C    -0.710000000     2.664000000     4.045000000
C     0.138000000     1.625000000     4.423000000
C    -0.359000000     0.332000000     4.607000000
H     0.268000000    -0.487000000     4.951000000
C    -1.724000000     0.006000000     4.500000000
O    -2.146000000    -1.305000000     4.526000000
C    -2.287000000    -1.975000000     3.264000000
H    -1.755000000    -1.307000000     2.570000000
C    -1.557000000    -3.288000000     3.108000000
C    -1.862000000    -4.151000000     2.028000000
H    -2.856000000    -4.119000000     1.588000000
C    -0.478000000    -3.545000000     3.954000000
H    -0.099000000    -2.759000000     4.603000000
C     0.258000000    -4.693000000     3.772000000
O     1.409000000    -5.049000000     4.518000000
C    -0.140000000    -5.549000000     2.786000000
H     0.468000000    -6.446000000     2.698000000
C    -1.164000000    -5.289000000     1.887000000
O    -1.531000000    -6.402000000     1.150000000
C    -2.491000000    -6.382000000     0.248000000
C    -2.196000000    -5.867000000    -1.052000000
H    -1.208000000    -5.540000000    -1.366000000
C    -3.770000000    -6.905000000     0.572000000
H    -3.963000000    -7.334000000     1.552000000
C    -4.749000000    -6.887000000    -0.403000000
H    -5.784000000    -7.108000000    -0.154000000
C    -4.477000000    -6.334000000    -1.644000000
H    -5.250000000    -6.365000000    -2.408000000
C    -3.199000000    -5.875000000    -1.956000000
O    -3.023000000    -5.289000000    -3.182000000
C    -2.831000000    -3.984000000    -3.574000000
C    -2.275000000    -3.752000000    -4.827000000
H    -1.952000000    -4.547000000    -5.494000000
C    -2.125000000    -2.421000000    -5.183000000
O    -1.655000000    -2.109000000    -6.443000000
C    -1.026000000    -0.952000000    -6.862000000
C     0.259000000    -0.849000000    -6.391000000
H     0.770000000    -1.609000000    -5.805000000
C    -1.593000000     0.099000000    -7.576000000
H    -2.583000000     0.028000000    -8.020000000
C    -0.856000000     1.197000000    -7.891000000
H    -1.283000000     2.058000000    -8.399000000
C     0.465000000     1.325000000    -7.481000000
H     1.040000000     2.233000000    -7.638000000
C     1.021000000     0.313000000    -6.722000000
O     2.343000000     0.408000000    -6.242000000
C     2.632000000     1.195000000    -5.117000000
C     3.925000000     1.186000000    -4.717000000
H     4.669000000     0.718000000    -5.356000000
C     4.288000000     1.951000000    -3.610000000
O     5.644000000     2.006000000    -3.236000000
C     6.113000000     2.443000000    -2.041000000
C     6.396000000     1.673000000    -0.935000000
H     6.477000000     0.598000000    -1.079000000
C     6.229000000     3.832000000    -1.915000000
H     6.043000000     4.455000000    -2.786000000
C     6.670000000     4.405000000    -0.753000000
H     6.894000000     5.455000000    -0.588000000
C     6.845000000     3.624000000     0.429000000
H     7.168000000     4.057000000     1.372000000
C     6.755000000     2.243000000     0.280000000
O     7.006000000     1.416000000     1.382000000
C     5.915000000     1.003000000     2.146000000
C     6.028000000    -0.278000000     2.748000000
H     6.871000000    -0.923000000     2.514000000
C     4.968000000    -0.789000000     3.518000000
O     5.134000000    -2.093000000     4.055000000
C     4.235000000    -2.797000000     4.790000000
C     4.147000000    -2.397000000     6.078000000
H     4.818000000    -1.651000000     6.495000000
C     3.159000000    -2.996000000     6.886000000
H     3.144000000    -2.810000000     7.957000000
C     2.262000000    -3.865000000     6.329000000
H     1.469000000    -4.352000000     6.891000000
C     2.322000000    -4.167000000     4.977000000
C     3.271000000    -3.595000000     4.147000000
H     3.285000000    -3.831000000     3.086000000
C     0.377000000    -2.252000000    -1.651000000
H     0.272000000    -2.471000000    -2.710000000
C    -0.091000000    -0.988000000    -1.248000000
H    -0.490000000    -0.359000000    -2.039000000
C    -0.029000000    -0.594000000     0.061000000
C    -0.643000000     0.724000000     0.463000000
H    -1.281000000     0.541000000     1.330000000
H     0.126000000     1.455000000     0.720000000
H    -1.298000000     1.183000000    -0.280000000
C     0.550000000    -1.420000000     1.012000000
H     0.433000000    -1.118000000     2.049000000
C     1.072000000    -2.708000000     0.686000000
H     1.459000000    -3.388000000     1.441000000
C     0.947000000    -3.137000000    -0.692000000
C     1.245000000    -4.584000000    -1.083000000
O     1.569000000    -5.413000000    -0.227000000
O     1.357000000    -4.807000000    -2.269000000
O     5.166000000    -4.944000000    -0.134000000
H     4.578000000    -4.960000000     0.621000000
H     4.696000000    -5.428000000    -0.813000000
O     6.161000000    -2.572000000    -0.949000000
H     6.884000000    -2.535000000    -0.322000000
H     5.664000000    -3.350000000    -0.695000000
O    -1.917000000    -9.279000000    -4.109000000
H    -1.494000000    -9.258000000    -4.967000000
H    -1.680000000    -8.444000000    -3.705000000
O     3.801000000    -2.673000000    -6.118000000
H     3.498000000    -3.547000000    -5.873000000
H     3.720000000    -2.157000000    -5.316000000
O     2.758000000    -4.697000000    -4.529000000
H     3.655000000    -4.541000000    -4.233000000
H     2.237000000    -4.696000000    -3.725000000
O     5.060000000    -3.806000000    -3.302000000
H     5.187000000    -2.863000000    -3.406000000
H     5.235000000    -3.970000000    -2.375000000
O     0.064000000    -7.578000000    -0.764000000
H     0.399000000    -6.767000000    -0.381000000
H     0.269000000    -7.504000000    -1.697000000
O     2.160000000    -9.158000000     0.506000000
H     2.637000000    -8.330000000     0.563000000
H     1.295000000    -8.913000000     0.177000000
O     3.962000000    -6.897000000    -1.352000000
H     4.166000000    -7.183000000    -2.242000000
H     3.131000000    -6.430000000    -1.435000000
O     1.445000000    -6.466000000    -6.138000000
H     1.140000000    -6.695000000    -5.260000000
H     1.894000000    -5.628000000    -6.025000000
O     3.246000000    -5.878000000     1.908000000
H     2.691000000    -5.808000000     2.685000000
H     2.645000000    -5.757000000     1.173000000
O     7.130000000    -6.888000000    -1.013000000
H     6.457000000    -6.515000000    -0.444000000
H     7.947000000    -6.495000000    -0.706000000
O     3.549000000    -7.811000000    -3.941000000
H     4.007000000    -8.651000000    -3.961000000
H     3.943000000    -7.305000000    -4.651000000
O     1.882000000   -10.381000000    -3.543000000
H     1.731000000    -9.443000000    -3.430000000
H     2.793000000   -10.444000000    -3.829000000
O     3.094000000    -1.459000000    -3.182000000
H     2.715000000    -2.177000000    -2.675000000
H     3.183000000    -0.743000000    -2.553000000
O     0.991000000    -7.242000000    -3.288000000
H     1.084000000    -6.323000000    -3.039000000
H     1.851000000    -7.485000000    -3.632000000
O    -1.329000000    -9.514000000     0.339000000
H    -0.940000000    -8.756000000    -0.098000000
H    -1.246000000    -9.321000000     1.273000000
O     4.827000000   -10.043000000     0.298000000
H     3.995000000    -9.583000000     0.183000000
H     5.225000000    -9.630000000     1.064000000
O     3.954000000    -0.778000000    -0.406000000
H     3.553000000    -0.917000000     0.452000000
H     4.829000000    -1.158000000    -0.326000000
