218
-1462.27161
C    -0.233000000     0.778000000     4.698000000
H    -1.195000000     0.631000000     4.213000000
C     0.427000000     1.944000000     4.249000000
C     1.772000000     2.122000000     4.666000000
H     2.383000000     3.006000000     4.506000000
C    -0.172000000     2.905000000     3.248000000
O    -1.494000000     3.319000000     3.635000000
H    -0.176000000     2.369000000     2.288000000
O     0.675000000     3.992000000     3.113000000
C     0.997000000     4.317000000     1.785000000
C     2.194000000     3.824000000     1.183000000
H     2.842000000     3.302000000     1.883000000
C     2.427000000     3.972000000    -0.203000000
O     3.490000000     3.292000000    -0.697000000
C     1.429000000     4.537000000    -1.031000000
C     1.551000000     4.586000000    -2.538000000
H     1.095000000     5.492000000    -2.942000000
C     1.112000000     3.297000000    -3.194000000
C    -0.163000000     3.120000000    -3.786000000
H    -0.841000000     3.967000000    -3.709000000
H     2.623000000     4.693000000    -2.715000000
C     0.280000000     5.011000000    -0.477000000
H    -0.397000000     5.623000000    -1.068000000
C     0.025000000     4.934000000     0.927000000
C    -1.315000000     5.392000000     1.524000000
H    -1.767000000     6.158000000     0.890000000
H    -1.182000000     5.831000000     2.515000000
C    -2.367000000     4.170000000     1.637000000
C    -3.213000000     3.977000000     0.558000000
H    -3.123000000     4.582000000    -0.341000000
C    -2.450000000     3.265000000     2.719000000
C    -3.257000000     2.130000000     2.665000000
H    -3.224000000     1.453000000     3.515000000
C    -4.065000000     1.912000000     1.584000000
O    -4.754000000     0.696000000     1.598000000
C    -4.326000000    -0.379000000     0.663000000
C    -4.521000000    -1.767000000     1.200000000
C    -4.572000000    -2.886000000     0.327000000
H    -4.597000000    -2.796000000    -0.756000000
C    -4.416000000    -2.017000000     2.568000000
H    -4.347000000    -1.175000000     3.253000000
O    -5.081000000    -0.219000000    -0.574000000
H    -3.261000000    -0.327000000     0.395000000
C    -4.048000000     2.807000000     0.510000000
C    -4.865000000     2.659000000    -0.741000000
H    -4.995000000     3.673000000    -1.124000000
H    -5.857000000     2.269000000    -0.502000000
C    -4.294000000     1.760000000    -1.774000000
C    -3.478000000     2.191000000    -2.836000000
H    -3.268000000     3.244000000    -3.009000000
C    -4.334000000     0.379000000    -1.587000000
C    -3.707000000    -0.527000000    -2.379000000
H    -3.782000000    -1.595000000    -2.193000000
C    -2.879000000    -0.069000000    -3.401000000
O    -2.153000000    -1.013000000    -4.081000000
C    -0.700000000    -1.091000000    -3.759000000
C    -0.203000000    -2.582000000    -3.772000000
C    -1.026000000    -3.605000000    -3.426000000
H    -2.055000000    -3.382000000    -3.159000000
C     1.194000000    -2.795000000    -3.978000000
H     1.913000000    -2.004000000    -4.177000000
O    -0.024000000    -0.398000000    -4.822000000
H    -0.514000000    -0.645000000    -2.770000000
C    -2.806000000     1.292000000    -3.647000000
C    -1.954000000     1.790000000    -4.783000000
H    -2.354000000     2.699000000    -5.237000000
H    -2.036000000     1.058000000    -5.589000000
C    -0.495000000     1.938000000    -4.405000000
C     0.386000000     0.865000000    -4.457000000
C     1.627000000     1.042000000    -3.926000000
H     2.324000000     0.208000000    -3.921000000
C     1.994000000     2.241000000    -3.274000000
O     3.256000000     2.230000000    -2.729000000
C     3.319000000     2.004000000    -1.322000000
H     2.325000000     1.675000000    -0.983000000
C     4.335000000     1.026000000    -0.881000000
C     4.880000000     1.173000000     0.440000000
H     4.676000000     2.007000000     1.106000000
C     4.749000000    -0.089000000    -1.657000000
H     4.432000000    -0.195000000    -2.691000000
C     5.694000000    -0.961000000    -1.193000000
O     6.276000000    -1.909000000    -2.006000000
C     6.248000000    -0.690000000     0.068000000
H     7.065000000    -1.373000000     0.287000000
C     5.960000000     0.372000000     0.899000000
O     6.693000000     0.500000000     2.097000000
C     6.285000000     1.237000000     3.230000000
C     5.116000000     0.989000000     3.949000000
H     4.570000000     0.069000000     3.759000000
C     7.071000000     2.379000000     3.445000000
H     8.040000000     2.467000000     2.961000000
C     6.764000000     3.106000000     4.601000000
H     7.352000000     4.003000000     4.779000000
C     5.654000000     2.813000000     5.393000000
H     5.458000000     3.401000000     6.287000000
C     4.819000000     1.746000000     5.057000000
O     3.775000000     1.336000000     5.858000000
C     2.432000000     1.250000000     5.573000000
C     1.708000000     0.120000000     5.941000000
H     2.209000000    -0.569000000     6.616000000
C     0.376000000    -0.116000000     5.556000000
O    -0.241000000    -1.346000000     5.992000000
C    -1.594000000    -1.492000000     5.898000000
C    -2.191000000    -2.496000000     5.117000000
H    -1.603000000    -3.194000000     4.527000000
C    -2.432000000    -0.661000000     6.654000000
H    -2.012000000     0.104000000     7.302000000
C    -3.792000000    -0.744000000     6.499000000
H    -4.479000000    -0.012000000     6.915000000
C    -4.358000000    -1.742000000     5.714000000
H    -5.443000000    -1.813000000     5.690000000
C    -3.561000000    -2.667000000     5.141000000
O    -4.257000000    -3.570000000     4.362000000
C    -4.455000000    -3.365000000     3.038000000
C    -4.623000000    -4.393000000     2.194000000
H    -4.641000000    -5.397000000     2.611000000
C    -4.584000000    -4.211000000     0.835000000
O    -4.945000000    -5.318000000     0.116000000
C    -4.500000000    -5.585000000    -1.193000000
C    -3.127000000    -5.818000000    -1.445000000
H    -2.399000000    -5.866000000    -0.640000000
C    -5.396000000    -5.471000000    -2.261000000
H    -6.429000000    -5.279000000    -1.983000000
C    -4.951000000    -5.551000000    -3.564000000
H    -5.681000000    -5.367000000    -4.348000000
C    -3.595000000    -5.732000000    -3.822000000
H    -3.283000000    -5.686000000    -4.862000000
C    -2.680000000    -5.747000000    -2.719000000
O    -1.389000000    -5.941000000    -3.078000000
C    -0.497000000    -4.878000000    -3.406000000
C     0.855000000    -5.154000000    -3.631000000
H     1.266000000    -6.156000000    -3.722000000
C     1.693000000    -4.106000000    -3.918000000
O     2.983000000    -4.464000000    -4.315000000
C     4.055000000    -3.585000000    -4.366000000
C     4.518000000    -3.119000000    -5.579000000
H     3.973000000    -3.321000000    -6.497000000
C     5.639000000    -2.192000000    -5.590000000
H     6.108000000    -1.902000000    -6.527000000
C     6.191000000    -1.837000000    -4.390000000
H     7.009000000    -1.120000000    -4.389000000
C     5.760000000    -2.360000000    -3.146000000
C     4.699000000    -3.234000000    -3.170000000
H     4.399000000    -3.721000000    -2.245000000
C     1.899000000    -2.585000000    -0.664000000
H     2.756000000    -3.052000000    -1.144000000
C     1.455000000    -1.220000000    -0.762000000
H     1.984000000    -0.476000000    -1.352000000
C     0.252000000    -0.791000000    -0.273000000
C    -0.237000000     0.546000000    -0.603000000
H     0.156000000     0.892000000    -1.561000000
H    -1.327000000     0.593000000    -0.657000000
H     0.070000000     1.242000000     0.180000000
C    -0.546000000    -1.764000000     0.437000000
H    -1.543000000    -1.465000000     0.749000000
C    -0.063000000    -3.046000000     0.612000000
H    -0.509000000    -3.760000000     1.300000000
C     1.207000000    -3.426000000     0.145000000
C     1.725000000    -4.834000000     0.368000000
O     1.404000000    -5.444000000     1.374000000
O     2.570000000    -5.370000000    -0.338000000
O     2.085000000    -3.939000000     6.007000000
H     2.255000000    -3.896000000     5.066000000
H     1.133000000    -4.004000000     6.076000000
O     0.506000000    -7.956000000    -1.858000000
H     0.565000000    -8.323000000    -0.976000000
H     0.285000000    -7.035000000    -1.719000000
O     3.733000000   -10.382000000    -1.090000000
H     3.986000000    -9.513000000    -1.403000000
H     4.459000000   -10.950000000    -1.348000000
O     0.774000000    -4.405000000     3.640000000
H     0.935000000    -4.851000000     2.809000000
H     0.805000000    -3.473000000     3.422000000
O     4.745000000    -5.777000000     1.138000000
H     4.028000000    -5.718000000     0.507000000
H     4.414000000    -6.359000000     1.822000000
O     0.340000000    -9.009000000     0.917000000
H     0.787000000    -9.694000000     0.421000000
H    -0.166000000    -9.482000000     1.577000000
O     4.420000000    -5.371000000     5.183000000
H     4.391000000    -4.894000000     6.013000000
H     4.483000000    -4.687000000     4.517000000
O     7.163000000    -6.126000000     2.926000000
H     7.837000000    -6.252000000     2.259000000
H     6.487000000    -5.607000000     2.490000000
O    -1.047000000    -6.527000000     1.846000000
H    -0.958000000    -7.369000000     1.399000000
H    -0.227000000    -6.070000000     1.662000000
O     7.013000000    -4.396000000     0.232000000
H     6.357000000    -5.050000000     0.472000000
H     7.211000000    -4.580000000    -0.686000000
O     0.945000000    -7.022000000     4.597000000
H     0.680000000    -6.104000000     4.553000000
H     1.281000000    -7.217000000     3.722000000
O     4.635000000    -3.792000000     3.063000000
H     4.640000000    -4.354000000     2.288000000
H     5.529000000    -3.456000000     3.121000000
O     2.463000000    -7.796000000     1.773000000
H     1.784000000    -8.401000000     1.473000000
H     2.073000000    -6.928000000     1.667000000
O     3.987000000   -10.413000000     1.503000000
H     4.045000000   -10.406000000     0.547000000
H     4.196000000    -9.515000000     1.761000000
O     3.407000000    -7.311000000    -1.665000000
H     2.621000000    -7.857000000    -1.640000000
H     3.129000000    -6.475000000    -1.291000000
O     2.360000000    -2.127000000     2.865000000
H     2.662000000    -1.313000000     2.462000000
H     3.104000000    -2.723000000     2.788000000
O     3.943000000    -8.147000000     4.192000000
H     3.847000000    -7.242000000     4.490000000
H     3.184000000    -8.295000000     3.628000000
O     5.820000000    -6.986000000    -3.023000000
H     6.433000000    -7.710000000    -3.153000000
H     5.052000000    -7.392000000    -2.621000000
O    -2.752000000    -6.691000000     3.963000000
H    -2.153000000    -6.628000000     3.219000000
H    -3.450000000    -7.271000000     3.661000000
