218
-1467.91407
C    -0.140000000     1.269000000     4.388000000
H    -1.106000000     1.025000000     3.953000000
C     0.448000000     2.425000000     3.852000000
C     1.753000000     2.735000000     4.152000000
H     2.341000000     3.483000000     3.626000000
C    -0.268000000     3.141000000     2.712000000
O    -1.665000000     3.457000000     3.017000000
H    -0.418000000     2.395000000     1.918000000
O     0.446000000     4.362000000     2.312000000
C     0.543000000     4.419000000     0.974000000
C     1.791000000     4.051000000     0.431000000
H     2.604000000     3.747000000     1.086000000
C     1.880000000     3.807000000    -0.881000000
O     3.090000000     3.258000000    -1.385000000
C     0.871000000     4.198000000    -1.757000000
C     1.167000000     4.200000000    -3.262000000
H     0.572000000     4.992000000    -3.721000000
C     0.861000000     2.809000000    -3.902000000
C    -0.358000000     2.547000000    -4.500000000
H    -1.030000000     3.395000000    -4.606000000
H     2.168000000     4.548000000    -3.524000000
C    -0.334000000     4.614000000    -1.180000000
H    -1.197000000     4.833000000    -1.802000000
C    -0.504000000     4.824000000     0.220000000
C    -1.809000000     5.334000000     0.699000000
H    -2.167000000     6.027000000    -0.066000000
H    -1.586000000     5.909000000     1.600000000
C    -2.661000000     4.063000000     0.789000000
C    -3.631000000     3.774000000    -0.199000000
H    -3.804000000     4.389000000    -1.078000000
C    -2.594000000     3.304000000     1.945000000
C    -3.603000000     2.308000000     2.094000000
H    -3.608000000     1.650000000     2.960000000
C    -4.457000000     1.988000000     1.008000000
O    -5.211000000     0.860000000     1.142000000
C    -4.537000000    -0.313000000     0.547000000
C    -4.473000000    -1.433000000     1.543000000
C    -3.888000000    -2.618000000     1.125000000
H    -3.644000000    -2.838000000     0.088000000
C    -4.532000000    -1.177000000     2.938000000
H    -4.871000000    -0.212000000     3.305000000
O    -5.110000000    -0.724000000    -0.704000000
H    -3.474000000    -0.048000000     0.445000000
C    -4.444000000     2.635000000    -0.218000000
C    -5.188000000     2.112000000    -1.477000000
H    -5.422000000     2.975000000    -2.104000000
H    -6.139000000     1.633000000    -1.237000000
C    -4.388000000     1.062000000    -2.235000000
C    -3.617000000     1.456000000    -3.329000000
H    -3.656000000     2.477000000    -3.699000000
C    -4.417000000    -0.288000000    -1.826000000
C    -3.662000000    -1.173000000    -2.601000000
H    -3.616000000    -2.199000000    -2.245000000
C    -2.977000000    -0.811000000    -3.760000000
O    -2.192000000    -1.753000000    -4.378000000
C    -0.744000000    -1.705000000    -4.131000000
C    -0.099000000    -3.076000000    -3.880000000
C    -0.940000000    -4.063000000    -3.403000000
H    -1.999000000    -3.831000000    -3.324000000
C     1.250000000    -3.313000000    -3.988000000
H     1.980000000    -2.579000000    -4.321000000
O    -0.095000000    -1.065000000    -5.292000000
H    -0.635000000    -1.064000000    -3.244000000
C    -2.988000000     0.546000000    -4.149000000
C    -2.229000000     1.042000000    -5.340000000
H    -2.707000000     1.974000000    -5.648000000
H    -2.329000000     0.365000000    -6.191000000
C    -0.732000000     1.268000000    -4.951000000
C     0.202000000     0.264000000    -4.992000000
C     1.446000000     0.518000000    -4.404000000
H     2.181000000    -0.274000000    -4.283000000
C     1.790000000     1.728000000    -3.813000000
O     2.996000000     1.692000000    -3.105000000
C     2.948000000     1.920000000    -1.675000000
H     2.039000000     1.443000000    -1.282000000
C     4.138000000     1.115000000    -1.087000000
C     4.862000000     1.584000000     0.014000000
H     4.641000000     2.567000000     0.421000000
C     4.476000000    -0.154000000    -1.623000000
H     3.909000000    -0.477000000    -2.492000000
C     5.573000000    -0.919000000    -1.061000000
O     6.062000000    -2.130000000    -1.607000000
C     6.220000000    -0.448000000     0.104000000
H     6.960000000    -1.060000000     0.613000000
C     5.817000000     0.767000000     0.638000000
O     6.620000000     1.271000000     1.598000000
C     6.284000000     2.083000000     2.663000000
C     5.149000000     1.815000000     3.418000000
H     4.507000000     0.988000000     3.124000000
C     7.128000000     3.157000000     3.003000000
H     7.949000000     3.380000000     2.326000000
C     6.751000000     3.981000000     4.080000000
H     7.442000000     4.770000000     4.364000000
C     5.637000000     3.605000000     4.855000000
H     5.580000000     4.030000000     5.854000000
C     4.815000000     2.582000000     4.529000000
O     3.742000000     2.264000000     5.427000000
C     2.490000000     1.910000000     4.995000000
C     1.882000000     0.833000000     5.675000000
H     2.398000000     0.268000000     6.447000000
C     0.573000000     0.448000000     5.265000000
O     0.060000000    -0.619000000     5.977000000
C    -1.264000000    -0.683000000     6.440000000
C    -2.236000000    -1.316000000     5.687000000
H    -1.945000000    -1.789000000     4.752000000
C    -1.629000000    -0.049000000     7.603000000
H    -0.915000000     0.495000000     8.215000000
C    -2.976000000    -0.065000000     7.961000000
H    -3.186000000     0.556000000     8.828000000
C    -4.009000000    -0.636000000     7.129000000
H    -5.063000000    -0.757000000     7.364000000
C    -3.589000000    -1.341000000     6.049000000
O    -4.410000000    -2.109000000     5.253000000
C    -4.243000000    -2.215000000     3.893000000
C    -3.798000000    -3.427000000     3.424000000
H    -3.426000000    -4.274000000     3.994000000
C    -3.668000000    -3.623000000     2.065000000
O    -3.089000000    -4.837000000     1.662000000
C    -3.252000000    -5.362000000     0.437000000
C    -2.245000000    -5.427000000    -0.527000000
H    -1.288000000    -5.036000000    -0.191000000
C    -4.527000000    -5.800000000     0.008000000
H    -5.413000000    -5.683000000     0.627000000
C    -4.694000000    -6.421000000    -1.270000000
H    -5.625000000    -6.833000000    -1.652000000
C    -3.543000000    -6.618000000    -2.064000000
H    -3.536000000    -7.272000000    -2.933000000
C    -2.329000000    -6.071000000    -1.778000000
O    -1.196000000    -6.358000000    -2.539000000
C    -0.407000000    -5.282000000    -3.000000000
C     0.957000000    -5.451000000    -3.016000000
H     1.273000000    -6.364000000    -2.519000000
C     1.742000000    -4.569000000    -3.646000000
O     3.072000000    -5.017000000    -3.905000000
C     4.095000000    -4.157000000    -3.975000000
C     4.810000000    -3.889000000    -5.144000000
H     4.489000000    -4.403000000    -6.047000000
C     5.850000000    -2.990000000    -5.174000000
H     6.358000000    -2.957000000    -6.134000000
C     6.273000000    -2.369000000    -3.965000000
H     7.106000000    -1.673000000    -3.906000000
C     5.607000000    -2.706000000    -2.774000000
C     4.583000000    -3.571000000    -2.760000000
H     4.150000000    -3.883000000    -1.813000000
C     0.867000000    -2.030000000    -0.440000000
H     1.619000000    -2.448000000    -1.104000000
C     0.311000000    -0.807000000    -0.872000000
H     0.737000000    -0.331000000    -1.752000000
C    -0.604000000    -0.073000000    -0.135000000
C    -1.007000000     1.266000000    -0.666000000
H    -0.179000000     1.959000000    -0.496000000
H    -1.287000000     1.206000000    -1.720000000
H    -1.851000000     1.537000000    -0.028000000
C    -0.905000000    -0.561000000     1.147000000
H    -1.623000000    -0.019000000     1.757000000
C    -0.470000000    -1.793000000     1.580000000
H    -0.912000000    -2.185000000     2.492000000
C     0.509000000    -2.495000000     0.864000000
C     1.124000000    -3.774000000     1.375000000
O     0.764000000    -4.152000000     2.468000000
O     1.934000000    -4.385000000     0.772000000
O     2.597000000    -5.884000000     4.728000000
H     2.182000000    -6.145000000     3.906000000
H     2.002000000    -5.234000000     5.101000000
O     1.894000000    -2.995000000     4.661000000
H     1.240000000    -2.446000000     5.096000000
H     1.392000000    -3.508000000     4.028000000
O     1.071000000    -3.860000000     7.466000000
H     1.117000000    -3.119000000     8.070000000
H     0.164000000    -3.863000000     7.160000000
O     4.828000000    -4.328000000     1.168000000
H     3.901000000    -4.245000000     0.943000000
H     4.851000000    -5.004000000     1.846000000
O     0.465000000    -8.352000000     0.530000000
H     0.657000000    -8.804000000    -0.292000000
H    -0.475000000    -8.479000000     0.659000000
O     0.377000000    -8.886000000     4.544000000
H     1.262000000    -8.523000000     4.498000000
H     0.221000000    -9.246000000     3.671000000
O     5.363000000    -5.512000000     5.767000000
H     6.058000000    -4.863000000     5.659000000
H     4.651000000    -5.196000000     5.211000000
O    -2.399000000    -8.973000000     1.076000000
H    -2.889000000    -8.343000000     1.604000000
H    -2.894000000    -9.038000000     0.259000000
O    -1.682000000    -4.591000000     6.386000000
H    -1.386000000    -4.661000000     5.479000000
H    -1.773000000    -5.498000000     6.679000000
O     5.028000000    -6.935000000     2.739000000
H     4.827000000    -7.203000000     3.636000000
H     4.174000000    -6.780000000     2.338000000
O     5.752000000    -2.349000000     2.825000000
H     4.866000000    -1.992000000     2.878000000
H     5.705000000    -3.005000000     2.130000000
O     6.399000000    -5.688000000    -0.320000000
H     5.610000000    -5.372000000     0.120000000
H     6.462000000    -5.155000000    -1.113000000
O     2.381000000    -6.771000000     2.037000000
H     1.735000000    -7.391000000     1.699000000
H     1.986000000    -5.911000000     1.894000000
O     3.506000000    -6.311000000    -0.918000000
H     3.065000000    -7.073000000    -0.542000000
H     3.055000000    -5.559000000    -0.534000000
O     3.821000000    -2.180000000     6.561000000
H     4.230000000    -1.482000000     6.050000000
H     3.183000000    -2.572000000     5.963000000
O     2.963000000    -0.981000000     2.478000000
H     2.637000000    -1.292000000     1.633000000
H     2.533000000    -1.543000000     3.122000000
O     3.870000000    -8.385000000     4.829000000
H     3.440000000    -7.544000000     4.672000000
H     3.503000000    -8.690000000     5.659000000
O     3.941000000    -7.895000000    -3.133000000
H     3.944000000    -7.214000000    -2.460000000
H     3.974000000    -7.415000000    -3.960000000
O    -1.074000000    -5.207000000     3.838000000
H    -0.480000000    -4.805000000     3.204000000
H    -1.789000000    -5.556000000     3.307000000
