218
-1456.17786
C    -2.276000000    -1.179000000    -4.581000000
H    -2.242000000    -0.162000000    -4.964000000
C    -2.861000000    -1.491000000    -3.380000000
C    -2.954000000    -2.828000000    -2.943000000
H    -3.121000000    -3.036000000    -1.889000000
C    -3.427000000    -0.468000000    -2.425000000
O    -3.821000000     0.777000000    -3.087000000
H    -2.573000000    -0.276000000    -1.759000000
O    -4.612000000    -0.886000000    -1.664000000
C    -4.658000000    -0.541000000    -0.309000000
C    -4.354000000    -1.495000000     0.626000000
H    -4.315000000    -2.542000000     0.336000000
C    -4.118000000    -1.036000000     1.926000000
O    -3.697000000    -1.978000000     2.766000000
C    -4.269000000     0.289000000     2.324000000
C    -4.074000000     0.686000000     3.789000000
H    -4.646000000     1.583000000     4.034000000
C    -2.587000000     0.935000000     3.957000000
C    -2.108000000     2.286000000     3.914000000
H    -2.733000000     3.081000000     3.516000000
H    -4.240000000    -0.108000000     4.520000000
C    -4.668000000     1.226000000     1.378000000
H    -4.758000000     2.258000000     1.708000000
C    -4.835000000     0.800000000     0.073000000
C    -5.142000000     1.938000000    -0.911000000
H    -5.764000000     2.681000000    -0.408000000
H    -5.728000000     1.561000000    -1.751000000
C    -3.881000000     2.516000000    -1.462000000
C    -3.219000000     3.630000000    -0.879000000
H    -3.697000000     4.068000000    -0.007000000
C    -3.280000000     1.902000000    -2.586000000
C    -2.119000000     2.383000000    -3.148000000
H    -1.556000000     1.853000000    -3.912000000
C    -1.504000000     3.503000000    -2.593000000
O    -0.229000000     3.838000000    -3.024000000
C     0.906000000     3.411000000    -2.248000000
C     1.988000000     2.954000000    -3.229000000
C     3.278000000     2.898000000    -2.748000000
H     3.538000000     3.164000000    -1.726000000
C     1.715000000     2.383000000    -4.490000000
H     0.709000000     2.409000000    -4.901000000
O     1.371000000     4.496000000    -1.420000000
H     0.691000000     2.610000000    -1.526000000
C    -2.077000000     4.161000000    -1.474000000
C    -1.371000000     5.337000000    -0.769000000
H    -2.046000000     6.091000000    -0.359000000
H    -0.748000000     5.808000000    -1.533000000
C    -0.398000000     4.901000000     0.250000000
C    -0.695000000     4.556000000     1.590000000
H    -1.659000000     4.856000000     1.993000000
C     0.875000000     4.454000000    -0.146000000
C     1.834000000     3.941000000     0.721000000
H     2.800000000     3.657000000     0.310000000
C     1.535000000     3.820000000     2.066000000
O     2.392000000     3.124000000     2.836000000
C     2.121000000     1.717000000     3.215000000
C     3.502000000     1.015000000     3.280000000
C     4.430000000     1.284000000     2.278000000
H     4.252000000     2.052000000     1.530000000
C     3.721000000    -0.058000000     4.176000000
H     2.893000000    -0.368000000     4.809000000
O     1.452000000     1.677000000     4.481000000
H     1.439000000     1.404000000     2.411000000
C     0.281000000     4.150000000     2.512000000
C    -0.183000000     4.016000000     3.969000000
H    -0.916000000     4.803000000     4.157000000
H     0.555000000     4.222000000     4.748000000
C    -0.760000000     2.549000000     4.152000000
C     0.148000000     1.509000000     4.492000000
C    -0.329000000     0.199000000     4.612000000
H     0.286000000    -0.639000000     4.932000000
C    -1.670000000    -0.100000000     4.281000000
O    -2.022000000    -1.376000000     4.341000000
C    -2.290000000    -1.969000000     3.029000000
H    -1.761000000    -1.359000000     2.283000000
C    -1.696000000    -3.370000000     2.893000000
C    -2.270000000    -4.382000000     2.085000000
H    -3.194000000    -4.215000000     1.538000000
C    -0.407000000    -3.571000000     3.434000000
H     0.071000000    -2.785000000     4.013000000
C     0.235000000    -4.799000000     3.185000000
O     1.490000000    -5.065000000     3.636000000
C    -0.376000000    -5.800000000     2.475000000
H     0.148000000    -6.733000000     2.284000000
C    -1.626000000    -5.596000000     1.874000000
O    -2.146000000    -6.670000000     1.105000000
C    -2.857000000    -6.452000000    -0.033000000
C    -2.260000000    -6.147000000    -1.203000000
H    -1.183000000    -6.003000000    -1.151000000
C    -4.218000000    -6.736000000     0.048000000
H    -4.601000000    -7.173000000     0.966000000
C    -5.037000000    -6.541000000    -1.099000000
H    -6.106000000    -6.734000000    -1.051000000
C    -4.386000000    -6.083000000    -2.242000000
H    -4.929000000    -5.775000000    -3.132000000
C    -3.056000000    -5.808000000    -2.283000000
O    -2.448000000    -5.104000000    -3.324000000
C    -2.459000000    -3.808000000    -3.728000000
C    -1.832000000    -3.519000000    -4.965000000
H    -1.474000000    -4.340000000    -5.580000000
C    -1.774000000    -2.222000000    -5.411000000
O    -1.220000000    -2.001000000    -6.667000000
C    -0.599000000    -0.774000000    -6.978000000
C     0.624000000    -0.315000000    -6.477000000
H     1.032000000    -1.014000000    -5.751000000
C    -1.091000000    -0.010000000    -8.061000000
H    -1.963000000    -0.379000000    -8.594000000
C    -0.506000000     1.203000000    -8.465000000
H    -1.040000000     1.716000000    -9.260000000
C     0.634000000     1.627000000    -7.859000000
H     1.090000000     2.580000000    -8.113000000
C     1.297000000     0.858000000    -6.923000000
O     2.516000000     1.273000000    -6.415000000
C     2.748000000     1.657000000    -5.130000000
C     4.079000000     1.608000000    -4.567000000
H     4.872000000     1.089000000    -5.101000000
C     4.373000000     2.303000000    -3.434000000
O     5.793000000     2.417000000    -3.115000000
C     6.141000000     2.604000000    -1.809000000
C     6.238000000     1.566000000    -0.882000000
H     5.925000000     0.546000000    -1.089000000
C     6.433000000     3.884000000    -1.403000000
H     6.194000000     4.757000000    -2.004000000
C     6.922000000     4.189000000    -0.093000000
H     7.190000000     5.217000000     0.137000000
C     6.918000000     3.144000000     0.853000000
H     7.227000000     3.307000000     1.883000000
C     6.603000000     1.896000000     0.428000000
O     6.714000000     0.878000000     1.335000000
C     5.740000000     0.675000000     2.344000000
C     5.901000000    -0.409000000     3.168000000
H     6.792000000    -1.032000000     3.160000000
C     4.860000000    -0.810000000     4.033000000
O     5.055000000    -1.959000000     4.745000000
C     4.024000000    -2.812000000     5.088000000
C     3.655000000    -2.814000000     6.448000000
H     4.247000000    -2.177000000     7.101000000
C     2.616000000    -3.669000000     6.897000000
H     2.388000000    -3.632000000     7.959000000
C     1.963000000    -4.511000000     6.006000000
H     1.265000000    -5.308000000     6.251000000
C     2.156000000    -4.363000000     4.613000000
C     3.255000000    -3.562000000     4.172000000
H     3.548000000    -3.482000000     3.129000000
C     1.050000000    -2.932000000    -1.866000000
H     1.063000000    -3.292000000    -2.891000000
C     0.585000000    -1.660000000    -1.492000000
H     0.066000000    -1.051000000    -2.229000000
C     0.747000000    -1.238000000    -0.222000000
C     0.246000000     0.103000000     0.228000000
H     0.009000000     0.073000000     1.294000000
H     1.029000000     0.864000000     0.250000000
H    -0.602000000     0.473000000    -0.352000000
C     1.419000000    -2.016000000     0.679000000
H     1.489000000    -1.711000000     1.720000000
C     1.886000000    -3.249000000     0.352000000
H     2.327000000    -3.863000000     1.133000000
C     1.707000000    -3.751000000    -0.920000000
C     2.072000000    -5.126000000    -1.195000000
O     2.828000000    -5.779000000    -0.516000000
O     1.427000000    -5.742000000    -2.067000000
O     5.421000000    -4.240000000     1.404000000
H     6.094000000    -4.641000000     1.955000000
H     4.691000000    -4.858000000     1.430000000
O     7.038000000    -4.139000000    -1.169000000
H     6.320000000    -3.692000000    -0.721000000
H     7.034000000    -5.024000000    -0.805000000
O     5.077000000    -2.692000000    -4.773000000
H     5.442000000    -3.491000000    -4.392000000
H     4.868000000    -2.141000000    -4.018000000
O     4.258000000    -9.537000000     2.720000000
H     4.626000000    -9.045000000     3.454000000
H     3.590000000    -8.957000000     2.354000000
O     5.962000000    -5.107000000    -3.658000000
H     5.079000000    -5.410000000    -3.449000000
H     6.437000000    -5.162000000    -2.829000000
O     1.239000000    -8.831000000    -0.012000000
H     1.107000000    -8.464000000    -0.886000000
H     1.810000000    -8.201000000     0.428000000
O     2.523000000    -7.268000000     1.690000000
H     3.060000000    -6.850000000     2.364000000
H     2.584000000    -6.679000000     0.937000000
O     5.330000000    -6.329000000    -0.594000000
H     5.369000000    -7.039000000    -1.235000000
H     4.413000000    -6.055000000    -0.597000000
O     1.168000000    -5.860000000    -4.872000000
H     0.612000000    -5.937000000    -4.097000000
H     1.857000000    -5.247000000    -4.613000000
O     3.343000000    -4.560000000    -6.104000000
H     3.151000000    -3.984000000    -6.844000000
H     3.973000000    -4.069000000    -5.576000000
O     4.691000000    -6.579000000     3.312000000
H     5.644000000    -6.497000000     3.282000000
H     4.480000000    -6.595000000     4.245000000
O     4.965000000    -7.875000000    -3.276000000
H     5.840000000    -8.249000000    -3.172000000
H     4.829000000    -7.844000000    -4.223000000
O     0.813000000   -10.286000000    -3.016000000
H     0.078000000   -10.189000000    -2.410000000
H     1.309000000    -9.472000000    -2.922000000
O     4.220000000    -1.827000000    -2.319000000
H     3.353000000    -1.504000000    -2.074000000
H     4.670000000    -1.962000000    -1.485000000
O     1.639000000    -8.167000000    -6.056000000
H     1.942000000    -8.792000000    -5.397000000
H     1.448000000    -7.371000000    -5.560000000
O     2.265000000    -8.187000000    -2.878000000
H     2.114000000    -7.310000000    -2.526000000
H     3.215000000    -8.245000000    -2.979000000
O     0.104000000   -10.288000000     1.884000000
H     0.513000000    -9.797000000     1.171000000
H    -0.739000000    -9.855000000     2.019000000
O     3.930000000   -10.318000000    -1.471000000
H     4.660000000    -9.845000000    -1.072000000
H     3.154000000    -9.820000000    -1.217000000
O     5.375000000    -2.065000000     0.019000000
H     6.094000000    -1.650000000     0.496000000
H     5.179000000    -2.856000000     0.521000000
