218
-1456.76551
C    -0.154000000     2.543000000     4.444000000
H    -1.165000000     2.615000000     4.054000000
C     0.719000000     3.240000000     3.642000000
C     2.078000000     3.278000000     4.008000000
H     2.810000000     3.734000000     3.346000000
C     0.382000000     3.723000000     2.241000000
O    -0.905000000     4.388000000     2.279000000
H     0.337000000     2.740000000     1.749000000
O     1.334000000     4.657000000     1.627000000
C     1.611000000     4.390000000     0.282000000
C     2.727000000     3.669000000    -0.038000000
H     3.452000000     3.445000000     0.741000000
C     3.009000000     3.276000000    -1.356000000
O     4.068000000     2.410000000    -1.557000000
C     2.136000000     3.622000000    -2.402000000
C     2.339000000     3.271000000    -3.885000000
H     1.731000000     3.967000000    -4.467000000
C     1.841000000     1.866000000    -4.095000000
C     0.505000000     1.746000000    -4.655000000
H    -0.069000000     2.637000000    -4.898000000
H     3.353000000     3.367000000    -4.280000000
C     0.989000000     4.357000000    -2.095000000
H     0.305000000     4.652000000    -2.887000000
C     0.735000000     4.776000000    -0.791000000
C    -0.566000000     5.535000000    -0.443000000
H    -0.971000000     5.949000000    -1.368000000
H    -0.425000000     6.367000000     0.250000000
C    -1.674000000     4.571000000    -0.044000000
C    -2.599000000     4.071000000    -1.024000000
H    -2.550000000     4.442000000    -2.045000000
C    -1.810000000     4.033000000     1.210000000
C    -2.777000000     3.136000000     1.578000000
H    -2.915000000     2.806000000     2.605000000
C    -3.644000000     2.625000000     0.589000000
O    -4.416000000     1.580000000     0.930000000
C    -4.017000000     0.297000000     0.425000000
C    -4.268000000    -0.681000000     1.595000000
C    -4.246000000    -2.006000000     1.317000000
H    -3.972000000    -2.279000000     0.301000000
C    -4.447000000    -0.181000000     2.882000000
H    -4.447000000     0.892000000     3.058000000
O    -4.862000000     0.021000000    -0.754000000
H    -2.948000000     0.336000000     0.165000000
C    -3.563000000     3.131000000    -0.744000000
C    -4.502000000     2.582000000    -1.907000000
H    -4.562000000     3.332000000    -2.699000000
H    -5.523000000     2.498000000    -1.530000000
C    -3.996000000     1.346000000    -2.577000000
C    -3.010000000     1.453000000    -3.604000000
H    -2.939000000     2.439000000    -4.056000000
C    -4.234000000     0.113000000    -1.974000000
C    -3.817000000    -1.010000000    -2.631000000
H    -4.004000000    -1.978000000    -2.173000000
C    -2.907000000    -0.936000000    -3.683000000
O    -2.239000000    -2.097000000    -4.051000000
C    -0.888000000    -2.258000000    -3.506000000
C    -0.614000000    -3.693000000    -2.968000000
C    -1.708000000    -4.493000000    -2.592000000
H    -2.673000000    -4.048000000    -2.821000000
C     0.663000000    -4.124000000    -2.577000000
H     1.486000000    -3.415000000    -2.640000000
O     0.031000000    -1.945000000    -4.516000000
H    -0.683000000    -1.518000000    -2.718000000
C    -2.555000000     0.287000000    -4.234000000
C    -1.558000000     0.378000000    -5.369000000
H    -1.691000000     1.255000000    -6.006000000
H    -1.696000000    -0.481000000    -6.029000000
C    -0.078000000     0.457000000    -4.861000000
C     0.633000000    -0.685000000    -4.488000000
C     1.981000000    -0.553000000    -4.031000000
H     2.523000000    -1.447000000    -3.735000000
C     2.548000000     0.681000000    -3.843000000
O     3.800000000     0.842000000    -3.286000000
C     3.810000000     1.034000000    -1.861000000
H     2.765000000     0.832000000    -1.583000000
C     4.703000000     0.122000000    -1.090000000
C     5.092000000     0.368000000     0.231000000
H     4.707000000     1.255000000     0.727000000
C     5.071000000    -1.133000000    -1.600000000
H     4.848000000    -1.442000000    -2.618000000
C     5.668000000    -2.073000000    -0.833000000
O     6.012000000    -3.271000000    -1.300000000
C     6.038000000    -1.790000000     0.445000000
H     6.508000000    -2.583000000     1.022000000
C     5.720000000    -0.575000000     1.061000000
O     6.134000000    -0.399000000     2.430000000
C     5.912000000     0.860000000     3.034000000
C     4.831000000     1.148000000     3.868000000
H     4.390000000     0.266000000     4.325000000
C     6.677000000     1.882000000     2.597000000
H     7.554000000     1.706000000     1.980000000
C     6.485000000     3.189000000     3.110000000
H     7.252000000     3.939000000     2.934000000
C     5.531000000     3.480000000     4.045000000
H     5.424000000     4.494000000     4.424000000
C     4.761000000     2.411000000     4.431000000
O     3.895000000     2.630000000     5.457000000
C     2.524000000     2.594000000     5.191000000
C     1.607000000     1.854000000     5.956000000
H     2.038000000     1.546000000     6.905000000
C     0.250000000     1.868000000     5.606000000
O    -0.655000000     1.348000000     6.505000000
C    -1.991000000     1.531000000     6.301000000
C    -2.742000000     0.418000000     5.849000000
H    -2.227000000    -0.503000000     5.589000000
C    -2.568000000     2.769000000     6.368000000
H    -1.998000000     3.671000000     6.578000000
C    -3.993000000     2.876000000     6.218000000
H    -4.395000000     3.879000000     6.336000000
C    -4.718000000     1.705000000     5.916000000
H    -5.788000000     1.751000000     5.731000000
C    -4.118000000     0.492000000     5.731000000
O    -4.804000000    -0.602000000     5.243000000
C    -4.667000000    -1.096000000     3.963000000
C    -4.731000000    -2.481000000     3.626000000
H    -5.012000000    -3.182000000     4.408000000
C    -4.586000000    -2.948000000     2.366000000
O    -4.519000000    -4.352000000     2.141000000
C    -4.594000000    -4.877000000     0.858000000
C    -3.619000000    -5.672000000     0.300000000
H    -2.659000000    -5.725000000     0.806000000
C    -5.729000000    -4.590000000     0.026000000
H    -6.554000000    -4.064000000     0.500000000
C    -5.860000000    -5.172000000    -1.271000000
H    -6.685000000    -4.881000000    -1.915000000
C    -4.784000000    -5.873000000    -1.784000000
H    -4.800000000    -6.228000000    -2.811000000
C    -3.683000000    -6.050000000    -1.020000000
O    -2.593000000    -6.542000000    -1.645000000
C    -1.509000000    -5.732000000    -1.998000000
C    -0.228000000    -6.300000000    -1.806000000
H    -0.148000000    -7.188000000    -1.186000000
C     0.889000000    -5.433000000    -2.098000000
O     2.236000000    -5.868000000    -1.821000000
C     3.360000000    -5.353000000    -2.417000000
C     3.851000000    -5.777000000    -3.685000000
H     3.330000000    -6.543000000    -4.254000000
C     5.075000000    -5.280000000    -4.161000000
H     5.334000000    -5.384000000    -5.212000000
C     5.800000000    -4.368000000    -3.381000000
H     6.729000000    -3.983000000    -3.794000000
C     5.276000000    -4.018000000    -2.149000000
C     4.128000000    -4.495000000    -1.647000000
H     3.893000000    -4.135000000    -0.649000000
C     2.017000000    -1.883000000     1.125000000
H     2.999000000    -1.889000000     1.590000000
C     1.659000000    -0.567000000     0.645000000
H     2.365000000     0.232000000     0.856000000
C     0.477000000    -0.407000000    -0.118000000
C     0.082000000     0.900000000    -0.813000000
H    -0.923000000     1.265000000    -0.592000000
H     0.772000000     1.653000000    -0.426000000
H     0.092000000     0.818000000    -1.901000000
C    -0.365000000    -1.544000000    -0.291000000
H    -1.334000000    -1.492000000    -0.782000000
C    -0.012000000    -2.785000000     0.268000000
H    -0.714000000    -3.614000000     0.299000000
C     1.183000000    -3.005000000     0.999000000
C     1.581000000    -4.269000000     1.676000000
O     0.740000000    -5.101000000     1.963000000
O     2.703000000    -4.562000000     1.986000000
O    -2.518000000    -3.518000000     5.629000000
H    -1.911000000    -3.214000000     6.304000000
H    -1.972000000    -4.026000000     5.029000000
O    -1.556000000    -5.092000000     3.729000000
H    -0.830000000    -4.986000000     3.114000000
H    -1.498000000    -6.004000000     4.013000000
O    -1.815000000    -8.648000000     1.274000000
H    -2.732000000    -8.771000000     1.028000000
H    -1.328000000    -9.209000000     0.670000000
O     5.809000000    -7.035000000     2.476000000
H     5.843000000    -6.094000000     2.649000000
H     5.042000000    -7.148000000     1.914000000
O     2.700000000    -1.991000000     7.641000000
H     1.793000000    -1.741000000     7.468000000
H     3.164000000    -1.788000000     6.829000000
O     1.040000000    -7.739000000     1.441000000
H     0.214000000    -8.072000000     1.088000000
H     0.965000000    -6.787000000     1.368000000
O     4.623000000    -2.793000000     4.757000000
H     4.088000000    -3.128000000     5.476000000
H     5.090000000    -2.046000000     5.133000000
O     0.569000000    -7.185000000     4.875000000
H     0.305000000    -8.062000000     4.598000000
H     1.115000000    -6.861000000     4.158000000
O    -0.793000000    -9.391000000     3.733000000
H    -1.089000000    -9.297000000     2.828000000
H    -1.574000000    -9.668000000     4.213000000
O     3.705000000    -4.790000000     6.484000000
H     4.477000000    -5.312000000     6.701000000
H     3.458000000    -4.373000000     7.309000000
O     5.305000000    -3.903000000     2.411000000
H     4.503000000    -4.196000000     1.978000000
H     5.005000000    -3.500000000     3.226000000
O     8.284000000    -4.060000000     2.453000000
H     7.428000000    -4.053000000     2.881000000
H     8.732000000    -4.819000000     2.826000000
O     3.029000000    -8.921000000     3.035000000
H     2.405000000    -8.777000000     2.323000000
H     3.208000000    -8.046000000     3.378000000
O     6.773000000    -6.463000000    -0.588000000
H     6.588000000    -7.153000000    -1.225000000
H     5.910000000    -6.169000000    -0.296000000
O     0.811000000    -1.631000000     5.526000000
H     0.173000000    -1.389000000     4.855000000
H     0.944000000    -2.571000000     5.401000000
O    -0.611000000    -1.490000000     3.314000000
H    -0.246000000    -1.031000000     2.558000000
H    -1.159000000    -2.178000000     2.936000000
O     3.128000000    -6.202000000     4.049000000
H     2.713000000    -5.588000000     3.445000000
H     3.531000000    -5.647000000     4.717000000
O     3.533000000    -6.917000000     0.655000000
H     2.668000000    -7.320000000     0.726000000
H     3.409000000    -6.025000000     0.980000000
O     0.859000000    -4.690000000     6.259000000
H     0.712000000    -5.406000000     5.640000000
H     1.677000000    -4.919000000     6.700000000
