218
-1470.25397
C     0.943000000     2.790000000     4.383000000
H    -0.066000000     3.193000000     4.438000000
C     1.733000000     2.855000000     3.272000000
C     2.984000000     2.286000000     3.329000000
H     3.694000000     2.401000000     2.514000000
C     1.188000000     3.401000000     1.958000000
O     0.079000000     4.269000000     2.307000000
H     0.800000000     2.562000000     1.362000000
O     2.196000000     4.224000000     1.238000000
C     2.152000000     4.110000000    -0.189000000
C     3.046000000     3.288000000    -0.759000000
H     3.885000000     2.752000000    -0.323000000
C     3.086000000     3.052000000    -2.153000000
O     3.981000000     2.133000000    -2.655000000
C     2.047000000     3.535000000    -2.947000000
C     1.918000000     3.092000000    -4.430000000
H     1.273000000     3.836000000    -4.903000000
C     1.133000000     1.770000000    -4.530000000
C    -0.222000000     1.819000000    -4.807000000
H    -0.776000000     2.740000000    -4.971000000
H     2.855000000     3.050000000    -4.989000000
C     1.016000000     4.232000000    -2.331000000
H     0.234000000     4.613000000    -2.983000000
C     1.125000000     4.595000000    -0.979000000
C     0.141000000     5.600000000    -0.389000000
H    -0.192000000     6.376000000    -1.081000000
H     0.695000000     6.140000000     0.381000000
C    -0.983000000     4.679000000     0.192000000
C    -2.123000000     4.354000000    -0.609000000
H    -2.149000000     4.559000000    -1.677000000
C    -1.008000000     4.157000000     1.480000000
C    -2.038000000     3.348000000     1.950000000
H    -1.995000000     3.114000000     3.011000000
C    -3.161000000     3.175000000     1.204000000
O    -4.158000000     2.284000000     1.695000000
C    -4.003000000     0.962000000     1.309000000
C    -4.235000000    -0.009000000     2.409000000
C    -4.646000000    -1.327000000     2.146000000
H    -4.818000000    -1.658000000     1.125000000
C    -4.004000000     0.337000000     3.746000000
H    -3.713000000     1.357000000     3.986000000
O    -4.882000000     0.638000000     0.234000000
H    -2.939000000     0.835000000     1.058000000
C    -3.246000000     3.663000000    -0.086000000
C    -4.341000000     3.286000000    -0.979000000
H    -4.449000000     3.994000000    -1.803000000
H    -5.305000000     3.355000000    -0.470000000
C    -3.997000000     1.925000000    -1.632000000
C    -3.371000000     1.937000000    -2.894000000
H    -3.204000000     2.828000000    -3.494000000
C    -4.344000000     0.688000000    -1.101000000
C    -4.060000000    -0.517000000    -1.770000000
H    -4.421000000    -1.444000000    -1.332000000
C    -3.436000000    -0.492000000    -3.030000000
O    -3.118000000    -1.730000000    -3.508000000
C    -1.685000000    -2.040000000    -3.456000000
C    -1.527000000    -3.482000000    -2.979000000
C    -2.373000000    -4.076000000    -2.085000000
H    -3.201000000    -3.480000000    -1.708000000
C    -0.335000000    -4.130000000    -3.353000000
H     0.349000000    -3.687000000    -4.072000000
O    -1.075000000    -1.734000000    -4.769000000
H    -1.243000000    -1.404000000    -2.675000000
C    -3.138000000     0.730000000    -3.608000000
C    -2.497000000     0.759000000    -5.028000000
H    -2.885000000     1.570000000    -5.648000000
H    -2.745000000    -0.179000000    -5.527000000
C    -1.027000000     0.643000000    -4.828000000
C    -0.377000000    -0.583000000    -4.695000000
C     1.029000000    -0.681000000    -4.495000000
H     1.373000000    -1.696000000    -4.314000000
C     1.784000000     0.512000000    -4.448000000
O     3.057000000     0.348000000    -4.045000000
C     3.405000000     0.759000000    -2.667000000
H     2.518000000     0.649000000    -2.027000000
C     4.261000000    -0.260000000    -2.014000000
C     5.332000000     0.209000000    -1.240000000
H     5.600000000     1.263000000    -1.268000000
C     3.998000000    -1.626000000    -2.041000000
H     3.095000000    -1.937000000    -2.559000000
C     4.758000000    -2.480000000    -1.263000000
O     4.414000000    -3.829000000    -1.211000000
C     5.866000000    -2.029000000    -0.472000000
H     6.425000000    -2.680000000     0.196000000
C     6.125000000    -0.676000000    -0.471000000
O     7.093000000    -0.210000000     0.447000000
C     6.902000000     0.617000000     1.543000000
C     5.791000000     0.456000000     2.342000000
H     4.955000000    -0.153000000     2.006000000
C     7.853000000     1.560000000     1.877000000
H     8.748000000     1.762000000     1.295000000
C     7.830000000     2.216000000     3.098000000
H     8.683000000     2.839000000     3.356000000
C     6.717000000     2.020000000     3.945000000
H     6.555000000     2.571000000     4.868000000
C     5.692000000     1.156000000     3.562000000
O     4.600000000     0.879000000     4.333000000
C     3.416000000     1.518000000     4.408000000
C     2.601000000     1.400000000     5.457000000
H     2.903000000     0.776000000     6.295000000
C     1.324000000     1.984000000     5.465000000
O     0.563000000     1.611000000     6.523000000
C    -0.804000000     1.785000000     6.580000000
C    -1.591000000     0.669000000     6.219000000
H    -1.135000000    -0.193000000     5.738000000
C    -1.378000000     2.871000000     7.139000000
H    -0.775000000     3.672000000     7.560000000
C    -2.808000000     2.918000000     7.157000000
H    -3.284000000     3.817000000     7.542000000
C    -3.576000000     1.847000000     6.753000000
H    -4.659000000     1.894000000     6.684000000
C    -2.987000000     0.724000000     6.277000000
O    -3.870000000    -0.291000000     6.053000000
C    -4.121000000    -0.633000000     4.771000000
C    -4.514000000    -1.933000000     4.480000000
H    -4.846000000    -2.614000000     5.260000000
C    -4.786000000    -2.296000000     3.140000000
O    -5.178000000    -3.592000000     2.773000000
C    -5.204000000    -4.098000000     1.483000000
C    -4.128000000    -4.842000000     1.004000000
H    -3.240000000    -5.025000000     1.604000000
C    -6.329000000    -3.916000000     0.683000000
H    -7.179000000    -3.457000000     1.182000000
C    -6.316000000    -4.455000000    -0.596000000
H    -7.196000000    -4.436000000    -1.233000000
C    -5.245000000    -5.148000000    -1.115000000
H    -5.185000000    -5.597000000    -2.103000000
C    -4.085000000    -5.398000000    -0.259000000
O    -2.903000000    -5.960000000    -0.729000000
C    -2.153000000    -5.400000000    -1.662000000
C    -1.108000000    -6.155000000    -2.198000000
H    -0.866000000    -7.209000000    -2.092000000
C    -0.217000000    -5.496000000    -3.010000000
O     0.771000000    -6.185000000    -3.648000000
C     2.111000000    -5.941000000    -3.379000000
C     3.086000000    -6.424000000    -4.255000000
H     2.865000000    -7.120000000    -5.060000000
C     4.420000000    -6.069000000    -4.140000000
H     5.159000000    -6.431000000    -4.849000000
C     4.827000000    -5.284000000    -3.155000000
H     5.891000000    -5.080000000    -3.076000000
C     3.914000000    -4.712000000    -2.217000000
C     2.572000000    -5.037000000    -2.401000000
H     1.795000000    -4.553000000    -1.815000000
C     2.036000000    -1.126000000     1.103000000
H     3.041000000    -0.980000000     1.490000000
C     1.381000000    -0.098000000     0.421000000
H     1.949000000     0.828000000     0.379000000
C     0.134000000    -0.255000000    -0.178000000
C    -0.473000000     0.836000000    -0.996000000
H    -1.549000000     0.709000000    -1.135000000
H    -0.292000000     1.810000000    -0.538000000
H     0.045000000     0.812000000    -1.957000000
C    -0.484000000    -1.444000000    -0.092000000
H    -1.426000000    -1.565000000    -0.621000000
C     0.147000000    -2.521000000     0.558000000
H    -0.330000000    -3.496000000     0.616000000
C     1.377000000    -2.367000000     1.211000000
C     2.006000000    -3.583000000     1.883000000
O     1.412000000    -4.611000000     1.961000000
O     3.022000000    -3.411000000     2.485000000
O     6.639000000    -4.522000000     1.911000000
H     7.354000000    -3.896000000     1.802000000
H     6.263000000    -4.310000000     2.765000000
O    -0.641000000    -5.425000000     3.368000000
H     0.107000000    -5.007000000     2.939000000
H    -0.803000000    -6.213000000     2.850000000
O     2.666000000    -9.739000000     1.043000000
H     2.226000000    -8.891000000     0.989000000
H     3.176000000    -9.797000000     0.235000000
O     0.890000000    -7.644000000     5.732000000
H     0.066000000    -7.876000000     5.304000000
H     1.355000000    -7.114000000     5.084000000
O     4.315000000    -5.911000000     1.940000000
H     5.153000000    -5.514000000     1.705000000
H     3.732000000    -5.168000000     2.092000000
O     7.664000000    -6.710000000     0.667000000
H     7.590000000    -7.578000000     1.063000000
H     7.137000000    -6.144000000     1.232000000
O     2.503000000    -5.368000000     4.635000000
H     2.441000000    -4.830000000     3.846000000
H     3.028000000    -6.123000000     4.370000000
O     1.288000000    -7.193000000     0.971000000
H     0.345000000    -7.356000000     1.014000000
H     1.403000000    -6.341000000     1.392000000
O     5.448000000    -2.671000000     3.824000000
H     4.592000000    -2.860000000     3.440000000
H     5.460000000    -3.172000000     4.639000000
O     0.914000000    -1.171000000     7.139000000
H     1.473000000    -0.905000000     7.869000000
H     1.455000000    -1.035000000     6.361000000
O     1.531000000    -4.183000000     6.975000000
H     0.989000000    -3.399000000     6.888000000
H     1.776000000    -4.407000000     6.077000000
O     4.016000000    -7.593000000     4.002000000
H     4.122000000    -8.515000000     3.766000000
H     4.164000000    -7.119000000     3.184000000
O     6.548000000    -4.722000000     5.335000000
H     7.362000000    -4.706000000     5.839000000
H     6.083000000    -5.495000000     5.655000000
O     2.488000000    -1.765000000     4.481000000
H     2.566000000    -2.414000000     3.782000000
H     3.354000000    -1.361000000     4.530000000
O     3.820000000    -7.398000000    -0.571000000
H     4.429000000    -6.737000000    -0.243000000
H     2.963000000    -7.115000000    -0.251000000
O    -1.949000000    -3.648000000     5.076000000
H    -1.512000000    -4.280000000     4.506000000
H    -1.636000000    -2.795000000     4.774000000
O    -1.512000000    -7.222000000     1.760000000
H    -1.775000000    -6.884000000     0.904000000
H    -2.263000000    -7.739000000     2.054000000
O    -0.698000000    -1.731000000     3.559000000
H    -0.875000000    -1.553000000     2.635000000
H     0.240000000    -1.565000000     3.659000000
O     4.184000000    -2.893000000     7.042000000
H     3.352000000    -3.052000000     6.596000000
H     4.072000000    -2.040000000     7.461000000
