218
-1462.04339
C    -1.051000000     2.135000000     4.689000000
H    -2.090000000     2.244000000     4.389000000
C     0.036000000     2.660000000     3.904000000
C     1.415000000     2.441000000     4.279000000
H     2.275000000     2.921000000     3.819000000
C    -0.164000000     3.434000000     2.615000000
O    -1.457000000     4.077000000     2.619000000
H    -0.074000000     2.714000000     1.788000000
O     0.871000000     4.444000000     2.376000000
C     1.367000000     4.634000000     1.118000000
C     2.558000000     4.019000000     0.928000000
H     3.114000000     3.758000000     1.824000000
C     3.010000000     3.779000000    -0.372000000
O     4.063000000     2.907000000    -0.517000000
C     2.161000000     4.204000000    -1.462000000
C     2.598000000     3.935000000    -2.911000000
H     2.124000000     4.723000000    -3.501000000
C     2.118000000     2.613000000    -3.435000000
C     0.907000000     2.510000000    -4.207000000
H     0.284000000     3.383000000    -4.381000000
H     3.666000000     4.049000000    -3.109000000
C     0.995000000     4.891000000    -1.229000000
H     0.400000000     5.264000000    -2.058000000
C     0.536000000     5.055000000     0.039000000
C    -0.838000000     5.723000000     0.266000000
H    -1.001000000     6.454000000    -0.529000000
H    -0.698000000     6.331000000     1.162000000
C    -1.933000000     4.627000000     0.242000000
C    -2.654000000     4.306000000    -0.944000000
H    -2.313000000     4.812000000    -1.843000000
C    -2.163000000     3.972000000     1.441000000
C    -3.128000000     3.031000000     1.462000000
H    -3.240000000     2.481000000     2.392000000
C    -3.766000000     2.537000000     0.274000000
O    -4.540000000     1.480000000     0.478000000
C    -4.026000000     0.204000000    -0.039000000
C    -4.441000000    -0.960000000     0.813000000
C    -4.601000000    -2.259000000     0.253000000
H    -4.519000000    -2.440000000    -0.816000000
C    -4.521000000    -0.876000000     2.190000000
H    -4.265000000     0.097000000     2.603000000
O    -4.674000000     0.078000000    -1.438000000
H    -2.932000000     0.210000000    -0.146000000
C    -3.570000000     3.254000000    -0.955000000
C    -4.267000000     2.881000000    -2.256000000
H    -4.262000000     3.797000000    -2.850000000
H    -5.339000000     2.797000000    -2.067000000
C    -3.667000000     1.684000000    -2.931000000
C    -2.677000000     1.863000000    -3.878000000
H    -2.410000000     2.868000000    -4.196000000
C    -3.879000000     0.356000000    -2.518000000
C    -3.117000000    -0.708000000    -3.001000000
H    -3.067000000    -1.621000000    -2.413000000
C    -2.176000000    -0.524000000    -3.996000000
O    -1.465000000    -1.604000000    -4.381000000
C    -0.126000000    -1.773000000    -3.850000000
C     0.141000000    -3.314000000    -3.586000000
C    -0.883000000    -4.130000000    -3.175000000
H    -1.875000000    -3.734000000    -2.978000000
C     1.430000000    -3.806000000    -3.786000000
H     2.233000000    -3.141000000    -4.092000000
O     0.807000000    -1.164000000    -4.794000000
H    -0.037000000    -1.159000000    -2.942000000
C    -1.950000000     0.768000000    -4.438000000
C    -0.805000000     1.055000000    -5.421000000
H    -0.998000000     2.031000000    -5.870000000
H    -0.657000000     0.368000000    -6.257000000
C     0.529000000     1.200000000    -4.721000000
C     1.292000000     0.008000000    -4.488000000
C     2.442000000     0.175000000    -3.694000000
H     2.878000000    -0.805000000    -3.518000000
C     2.870000000     1.413000000    -3.203000000
O     3.999000000     1.518000000    -2.438000000
C     3.789000000     1.662000000    -1.007000000
H     2.705000000     1.557000000    -0.854000000
C     4.545000000     0.587000000    -0.234000000
C     5.219000000     0.841000000     0.980000000
H     5.142000000     1.872000000     1.316000000
C     4.533000000    -0.763000000    -0.639000000
H     3.967000000    -1.138000000    -1.488000000
C     5.283000000    -1.707000000    -0.007000000
O     5.137000000    -3.089000000    -0.390000000
C     5.950000000    -1.448000000     1.198000000
H     6.426000000    -2.201000000     1.821000000
C     5.927000000    -0.118000000     1.683000000
O     6.520000000     0.218000000     2.830000000
C     5.932000000     1.091000000     3.753000000
C     4.830000000     0.623000000     4.392000000
H     4.544000000    -0.422000000     4.295000000
C     6.440000000     2.332000000     3.999000000
H     7.379000000     2.595000000     3.519000000
C     5.782000000     3.197000000     4.859000000
H     6.196000000     4.175000000     5.088000000
C     4.530000000     2.858000000     5.294000000
H     3.939000000     3.518000000     5.922000000
C     4.063000000     1.549000000     5.072000000
O     2.885000000     1.202000000     5.691000000
C     1.626000000     1.469000000     5.300000000
C     0.590000000     0.909000000     6.060000000
H     0.832000000     0.220000000     6.865000000
C    -0.757000000     1.335000000     5.840000000
O    -1.676000000     0.793000000     6.742000000
C    -3.034000000     0.511000000     6.400000000
C    -3.313000000    -0.472000000     5.381000000
H    -2.430000000    -0.900000000     4.913000000
C    -4.110000000     1.172000000     7.007000000
H    -3.971000000     1.867000000     7.831000000
C    -5.444000000     0.919000000     6.657000000
H    -6.222000000     1.605000000     6.983000000
C    -5.637000000    -0.114000000     5.644000000
H    -6.637000000    -0.275000000     5.249000000
C    -4.615000000    -0.857000000     5.110000000
O    -4.914000000    -1.909000000     4.302000000
C    -4.872000000    -1.921000000     2.934000000
C    -5.108000000    -3.117000000     2.371000000
H    -5.471000000    -3.891000000     3.044000000
C    -4.898000000    -3.302000000     1.041000000
O    -5.011000000    -4.639000000     0.493000000
C    -4.550000000    -5.087000000    -0.680000000
C    -3.186000000    -5.302000000    -0.917000000
H    -2.462000000    -4.931000000    -0.196000000
C    -5.490000000    -5.691000000    -1.516000000
H    -6.549000000    -5.617000000    -1.282000000
C    -5.052000000    -6.356000000    -2.645000000
H    -5.751000000    -6.899000000    -3.277000000
C    -3.702000000    -6.561000000    -2.838000000
H    -3.312000000    -7.295000000    -3.538000000
C    -2.753000000    -5.900000000    -2.068000000
O    -1.460000000    -6.301000000    -2.218000000
C    -0.600000000    -5.476000000    -2.909000000
C     0.643000000    -6.017000000    -3.168000000
H     0.795000000    -7.073000000    -2.958000000
C     1.689000000    -5.202000000    -3.643000000
O     2.928000000    -5.735000000    -3.777000000
C     3.978000000    -4.954000000    -3.325000000
C     4.900000000    -4.613000000    -4.335000000
H     4.818000000    -4.888000000    -5.383000000
C     5.910000000    -3.744000000    -3.994000000
H     6.702000000    -3.460000000    -4.682000000
C     5.990000000    -3.246000000    -2.699000000
H     6.681000000    -2.448000000    -2.440000000
C     5.030000000    -3.532000000    -1.736000000
C     4.051000000    -4.458000000    -2.068000000
H     3.338000000    -4.757000000    -1.304000000
C     1.930000000    -0.945000000     1.549000000
H     2.652000000    -0.869000000     2.359000000
C     1.260000000     0.201000000     1.102000000
H     1.463000000     1.200000000     1.478000000
C     0.318000000     0.109000000     0.058000000
C    -0.281000000     1.403000000    -0.442000000
H     0.440000000     2.207000000    -0.279000000
H    -0.481000000     1.274000000    -1.507000000
H    -1.251000000     1.619000000     0.012000000
C    -0.100000000    -1.129000000    -0.364000000
H    -0.870000000    -1.289000000    -1.115000000
C     0.490000000    -2.304000000     0.154000000
H     0.365000000    -3.273000000    -0.323000000
C     1.540000000    -2.180000000     1.030000000
C     2.269000000    -3.448000000     1.408000000
O     1.885000000    -4.476000000     0.918000000
O     2.923000000    -3.504000000     2.374000000
O     7.288000000    -6.354000000    -2.372000000
H     6.845000000    -5.984000000    -1.608000000
H     7.922000000    -5.684000000    -2.628000000
O    -0.293000000    -5.710000000     1.594000000
H     0.506000000    -5.331000000     1.228000000
H    -0.392000000    -6.547000000     1.140000000
O     6.289000000    -2.404000000     5.576000000
H     7.003000000    -2.552000000     6.196000000
H     5.611000000    -1.966000000     6.091000000
O     3.556000000    -8.800000000     3.027000000
H     4.357000000    -8.779000000     3.551000000
H     3.715000000    -8.172000000     2.322000000
O     0.256000000    -4.194000000     5.601000000
H     0.493000000    -4.932000000     5.039000000
H     0.728000000    -3.449000000     5.228000000
O     4.200000000    -6.039000000     1.760000000
H     4.916000000    -5.486000000     2.071000000
H     3.471000000    -5.433000000     1.626000000
O     6.034000000    -6.643000000     5.735000000
H     5.184000000    -6.210000000     5.808000000
H     6.163000000    -6.761000000     4.793000000
O     2.188000000    -2.342000000     4.583000000
H     2.649000000    -2.674000000     3.812000000
H     1.459000000    -1.835000000     4.225000000
O     0.536000000    -8.251000000     0.528000000
H     0.132000000    -8.733000000    -0.194000000
H     1.418000000    -8.049000000     0.217000000
O     7.829000000    -4.423000000     1.924000000
H     8.674000000    -4.274000000     2.349000000
H     7.188000000    -4.051000000     2.530000000
O    -2.243000000    -4.419000000     3.513000000
H    -1.511000000    -4.858000000     3.079000000
H    -2.989000000    -5.001000000     3.372000000
O     3.884000000    -1.908000000     6.844000000
H     3.566000000    -2.378000000     7.614000000
H     3.231000000    -2.087000000     6.167000000
O     1.050000000    -9.649000000     3.793000000
H     1.770000000    -9.249000000     3.305000000
H     0.635000000   -10.241000000     3.165000000
O     3.517000000    -5.131000000     5.666000000
H     2.657000000    -5.243000000     6.071000000
H     3.351000000    -4.578000000     4.902000000
O     5.321000000    -4.005000000     3.186000000
H     4.476000000    -3.697000000     2.858000000
H     5.408000000    -3.593000000     4.046000000
O     1.221000000    -6.166000000     4.057000000
H     0.927000000    -6.204000000     3.146000000
H     2.150000000    -6.391000000     4.018000000
O     3.211000000    -7.876000000    -0.153000000
H     3.503000000    -7.215000000     0.475000000
H     3.913000000    -7.916000000    -0.803000000
O     6.415000000    -5.933000000     0.126000000
H     5.687000000    -5.968000000     0.746000000
H     7.143000000    -5.570000000     0.631000000
O    -0.498000000    -1.847000000     3.399000000
H    -1.226000000    -2.448000000     3.554000000
H    -0.507000000    -1.700000000     2.453000000
