218
-1473.37483
C    -0.735000000     0.802000000     4.633000000
H    -1.715000000     0.617000000     4.198000000
C    -0.011000000     1.931000000     4.140000000
C     1.261000000     2.208000000     4.620000000
H     1.827000000     3.037000000     4.202000000
C    -0.671000000     2.799000000     3.108000000
O    -2.089000000     3.085000000     3.383000000
H    -0.621000000     2.300000000     2.129000000
O    -0.039000000     4.037000000     2.813000000
C     0.358000000     4.281000000     1.517000000
C     1.649000000     4.073000000     1.245000000
H     2.226000000     3.674000000     2.076000000
C     2.078000000     4.228000000    -0.088000000
O     3.265000000     3.656000000    -0.397000000
C     1.205000000     4.666000000    -1.037000000
C     1.582000000     4.706000000    -2.520000000
H     1.002000000     5.524000000    -2.951000000
C     1.354000000     3.333000000    -3.185000000
C     0.118000000     3.103000000    -3.767000000
H    -0.640000000     3.877000000    -3.690000000
H     2.624000000     4.983000000    -2.692000000
C    -0.158000000     4.961000000    -0.668000000
H    -0.799000000     5.254000000    -1.495000000
C    -0.569000000     4.790000000     0.631000000
C    -2.026000000     5.088000000     1.156000000
H    -2.434000000     5.879000000     0.524000000
H    -1.903000000     5.594000000     2.116000000
C    -2.826000000     3.832000000     1.179000000
C    -3.576000000     3.632000000     0.030000000
H    -3.601000000     4.220000000    -0.884000000
C    -2.884000000     2.961000000     2.313000000
C    -3.727000000     1.907000000     2.185000000
H    -3.648000000     1.143000000     2.954000000
C    -4.388000000     1.639000000     0.999000000
O    -4.991000000     0.367000000     1.000000000
C    -4.311000000    -0.578000000     0.156000000
C    -4.252000000    -1.937000000     0.865000000
C    -4.050000000    -3.110000000     0.119000000
H    -3.953000000    -3.047000000    -0.962000000
C    -4.266000000    -2.058000000     2.239000000
H    -4.337000000    -1.192000000     2.891000000
O    -4.908000000    -0.683000000    -1.175000000
H    -3.246000000    -0.318000000     0.063000000
C    -4.363000000     2.518000000    -0.125000000
C    -5.016000000     2.208000000    -1.477000000
H    -5.408000000     3.090000000    -1.989000000
H    -5.946000000     1.657000000    -1.324000000
C    -4.166000000     1.260000000    -2.360000000
C    -3.378000000     1.789000000    -3.438000000
H    -3.484000000     2.847000000    -3.662000000
C    -4.167000000    -0.122000000    -2.188000000
C    -3.367000000    -0.973000000    -2.932000000
H    -3.344000000    -2.056000000    -2.851000000
C    -2.510000000    -0.360000000    -3.899000000
O    -1.642000000    -1.201000000    -4.518000000
C    -0.283000000    -1.230000000    -4.053000000
C     0.300000000    -2.598000000    -3.919000000
C    -0.551000000    -3.710000000    -3.834000000
H    -1.593000000    -3.705000000    -4.141000000
C     1.617000000    -2.680000000    -3.493000000
H     2.288000000    -1.851000000    -3.284000000
O     0.532000000    -0.355000000    -4.883000000
H    -0.245000000    -0.761000000    -3.058000000
C    -2.469000000     0.995000000    -4.127000000
C    -1.528000000     1.620000000    -5.127000000
H    -1.953000000     2.531000000    -5.555000000
H    -1.417000000     1.078000000    -6.068000000
C    -0.179000000     1.911000000    -4.456000000
C     0.820000000     0.919000000    -4.476000000
C     2.059000000     1.127000000    -3.809000000
H     2.875000000     0.410000000    -3.830000000
C     2.312000000     2.343000000    -3.098000000
O     3.513000000     2.560000000    -2.454000000
C     3.399000000     2.380000000    -1.055000000
H     2.474000000     1.843000000    -0.802000000
C     4.561000000     1.571000000    -0.537000000
C     4.925000000     1.621000000     0.843000000
H     4.280000000     2.229000000     1.472000000
C     5.267000000     0.701000000    -1.327000000
H     4.969000000     0.521000000    -2.357000000
C     6.369000000    -0.072000000    -0.817000000
O     7.073000000    -1.003000000    -1.639000000
C     6.773000000     0.084000000     0.480000000
H     7.616000000    -0.499000000     0.841000000
C     5.995000000     0.836000000     1.348000000
O     6.283000000     0.796000000     2.725000000
C     5.661000000     1.610000000     3.616000000
C     4.677000000     1.145000000     4.422000000
H     4.182000000     0.210000000     4.172000000
C     6.167000000     2.946000000     3.728000000
H     6.988000000     3.269000000     3.092000000
C     5.626000000     3.829000000     4.672000000
H     5.995000000     4.846000000     4.782000000
C     4.585000000     3.353000000     5.451000000
H     4.164000000     3.971000000     6.239000000
C     4.084000000     2.013000000     5.321000000
O     3.062000000     1.630000000     6.112000000
C     1.821000000     1.372000000     5.594000000
C     1.083000000     0.284000000     6.089000000
H     1.572000000    -0.396000000     6.781000000
C    -0.162000000    -0.045000000     5.594000000
O    -0.728000000    -1.203000000     6.143000000
C    -2.088000000    -1.429000000     6.129000000
C    -2.505000000    -2.269000000     5.126000000
H    -1.809000000    -2.862000000     4.537000000
C    -2.991000000    -0.767000000     6.989000000
H    -2.546000000     0.089000000     7.490000000
C    -4.333000000    -1.154000000     6.874000000
H    -5.033000000    -0.647000000     7.533000000
C    -4.767000000    -2.136000000     5.951000000
H    -5.799000000    -2.477000000     5.948000000
C    -3.863000000    -2.577000000     4.994000000
O    -4.355000000    -3.523000000     4.212000000
C    -4.262000000    -3.359000000     2.808000000
C    -4.180000000    -4.467000000     2.018000000
H    -4.102000000    -5.461000000     2.452000000
C    -4.051000000    -4.359000000     0.698000000
O    -4.093000000    -5.549000000    -0.011000000
C    -3.783000000    -5.614000000    -1.367000000
C    -2.416000000    -5.732000000    -1.745000000
H    -1.722000000    -5.760000000    -0.909000000
C    -4.753000000    -5.814000000    -2.342000000
H    -5.810000000    -5.787000000    -2.091000000
C    -4.381000000    -6.077000000    -3.715000000
H    -5.176000000    -6.292000000    -4.425000000
C    -3.010000000    -6.141000000    -4.082000000
H    -2.693000000    -6.449000000    -5.075000000
C    -2.072000000    -5.963000000    -3.068000000
O    -0.713000000    -6.063000000    -3.376000000
C     0.024000000    -4.927000000    -3.490000000
C     1.340000000    -5.034000000    -3.108000000
H     1.817000000    -5.981000000    -2.867000000
C     2.152000000    -3.923000000    -3.118000000
O     3.453000000    -3.939000000    -2.561000000
C     4.515000000    -3.238000000    -3.024000000
C     4.908000000    -3.301000000    -4.304000000
H     4.255000000    -3.809000000    -5.009000000
C     6.099000000    -2.742000000    -4.783000000
H     6.334000000    -2.854000000    -5.838000000
C     6.806000000    -1.949000000    -3.886000000
H     7.625000000    -1.346000000    -4.270000000
C     6.436000000    -1.810000000    -2.564000000
C     5.273000000    -2.512000000    -2.155000000
H     5.016000000    -2.433000000    -1.102000000
C     1.302000000    -1.129000000     1.863000000
H     2.074000000    -1.095000000     2.628000000
C     0.839000000     0.017000000     1.192000000
H     1.389000000     0.936000000     1.379000000
C    -0.145000000     0.015000000     0.184000000
C    -0.497000000     1.220000000    -0.581000000
H    -1.392000000     1.090000000    -1.192000000
H    -0.665000000     2.023000000     0.139000000
H     0.252000000     1.459000000    -1.339000000
C    -0.864000000    -1.204000000    -0.036000000
H    -1.666000000    -1.219000000    -0.770000000
C    -0.461000000    -2.302000000     0.684000000
H    -0.815000000    -3.300000000     0.436000000
C     0.621000000    -2.311000000     1.579000000
C     1.126000000    -3.604000000     2.178000000
O     0.579000000    -4.634000000     1.972000000
O     1.993000000    -3.623000000     3.010000000
O    -3.053000000    -7.733000000     3.272000000
H    -2.954000000    -7.650000000     4.220000000
H    -3.749000000    -8.381000000     3.160000000
O    -2.693000000    -8.780000000     0.272000000
H    -2.497000000    -8.307000000     1.080000000
H    -3.625000000    -8.619000000     0.120000000
O     2.072000000    -2.890000000     5.484000000
H     1.998000000    -3.217000000     4.587000000
H     1.466000000    -2.150000000     5.520000000
O     2.556000000    -6.474000000     1.882000000
H     1.889000000    -5.801000000     1.745000000
H     3.272000000    -6.224000000     1.298000000
O     5.152000000    -5.243000000     0.463000000
H     5.277000000    -5.205000000    -0.486000000
H     5.884000000    -5.772000000     0.780000000
O     2.347000000    -9.553000000     4.454000000
H     1.919000000    -9.751000000     3.621000000
H     2.331000000    -8.597000000     4.510000000
O     4.365000000    -4.844000000     5.726000000
H     5.223000000    -4.427000000     5.809000000
H     3.742000000    -4.157000000     5.959000000
O     1.835000000    -7.670000000    -0.859000000
H     1.324000000    -6.903000000    -0.599000000
H     1.283000000    -8.416000000    -0.623000000
O     1.236000000    -6.916000000     6.928000000
H     1.560000000    -6.881000000     6.028000000
H     0.491000000    -6.315000000     6.937000000
O    -1.347000000    -5.387000000     7.272000000
H    -1.799000000    -4.744000000     7.818000000
H    -0.965000000    -4.872000000     6.562000000
O     1.187000000    -3.390000000     8.053000000
H     1.415000000    -2.597000000     8.538000000
H     1.755000000    -3.372000000     7.283000000
O     4.301000000    -8.814000000     2.108000000
H     3.918000000    -8.078000000     1.631000000
H     3.736000000    -9.557000000     1.895000000
O     0.000000000    -4.988000000     4.774000000
H    -0.136000000    -4.921000000     3.829000000
H     0.897000000    -4.680000000     4.908000000
O     4.322000000    -2.707000000     2.347000000
H     4.605000000    -3.353000000     1.700000000
H     3.605000000    -3.135000000     2.815000000
O     2.558000000    -6.617000000     4.675000000
H     2.397000000    -6.431000000     3.750000000
H     3.185000000    -5.947000000     4.949000000
O     6.417000000    -1.812000000     4.034000000
H     5.816000000    -2.018000000     3.318000000
H     6.818000000    -0.981000000     3.778000000
O     0.626000000    -8.546000000     2.357000000
H     0.046000000    -8.056000000     1.775000000
H     1.432000000    -8.031000000     2.381000000
O    -1.194000000    -6.457000000     1.648000000
H    -1.688000000    -6.382000000     2.465000000
H    -0.603000000    -5.703000000     1.656000000
O     5.618000000    -7.338000000     3.980000000
H     4.894000000    -6.792000000     4.286000000
H     5.208000000    -7.968000000     3.387000000
