218
-1467.67631
C    -1.377000000     1.031000000     4.454000000
H    -2.282000000     0.798000000     3.898000000
C    -0.654000000     2.177000000     4.079000000
C     0.651000000     2.385000000     4.635000000
H     1.275000000     3.225000000     4.341000000
C    -1.059000000     3.011000000     2.832000000
O    -2.472000000     3.367000000     2.801000000
H    -0.946000000     2.364000000     1.949000000
O    -0.288000000     4.195000000     2.698000000
C     0.193000000     4.579000000     1.412000000
C     1.467000000     4.302000000     1.101000000
H     2.157000000     4.087000000     1.913000000
C     1.965000000     4.266000000    -0.165000000
O     3.207000000     3.790000000    -0.353000000
C     1.134000000     4.607000000    -1.261000000
C     1.639000000     4.479000000    -2.682000000
H     1.053000000     5.199000000    -3.257000000
C     1.462000000     3.143000000    -3.256000000
C     0.430000000     2.885000000    -4.115000000
H    -0.339000000     3.608000000    -4.372000000
H     2.665000000     4.844000000    -2.768000000
C    -0.141000000     5.053000000    -0.933000000
H    -0.855000000     5.286000000    -1.718000000
C    -0.668000000     4.964000000     0.388000000
C    -2.137000000     5.167000000     0.547000000
H    -2.535000000     5.804000000    -0.246000000
H    -2.395000000     5.651000000     1.490000000
C    -2.914000000     3.840000000     0.422000000
C    -3.525000000     3.471000000    -0.755000000
H    -3.409000000     4.047000000    -1.669000000
C    -3.145000000     3.025000000     1.545000000
C    -3.928000000     1.872000000     1.464000000
H    -3.939000000     1.179000000     2.302000000
C    -4.511000000     1.548000000     0.286000000
O    -5.115000000     0.326000000     0.195000000
C    -4.334000000    -0.715000000    -0.268000000
C    -4.429000000    -2.021000000     0.528000000
C    -3.883000000    -3.195000000     0.000000000
H    -3.491000000    -3.223000000    -1.013000000
C    -4.985000000    -2.032000000     1.789000000
H    -5.576000000    -1.197000000     2.154000000
O    -4.709000000    -0.980000000    -1.666000000
H    -3.289000000    -0.375000000    -0.224000000
C    -4.339000000     2.299000000    -0.900000000
C    -4.885000000     1.911000000    -2.274000000
H    -5.063000000     2.749000000    -2.950000000
H    -5.829000000     1.371000000    -2.177000000
C    -3.962000000     0.906000000    -3.013000000
C    -3.000000000     1.424000000    -3.899000000
H    -2.871000000     2.480000000    -4.123000000
C    -3.853000000    -0.451000000    -2.636000000
C    -2.859000000    -1.222000000    -3.264000000
H    -2.682000000    -2.260000000    -2.993000000
C    -2.003000000    -0.745000000    -4.171000000
O    -1.040000000    -1.608000000    -4.668000000
C     0.186000000    -1.513000000    -4.094000000
C     0.840000000    -2.836000000    -3.722000000
C     0.093000000    -4.038000000    -3.528000000
H    -0.980000000    -3.884000000    -3.454000000
C     2.255000000    -2.934000000    -3.835000000
H     2.928000000    -2.114000000    -4.072000000
O     0.969000000    -0.609000000    -4.833000000
H     0.129000000    -0.994000000    -3.125000000
C    -2.013000000     0.623000000    -4.529000000
C    -1.044000000     1.283000000    -5.460000000
H    -1.422000000     2.224000000    -5.864000000
H    -0.810000000     0.658000000    -6.324000000
C     0.233000000     1.606000000    -4.665000000
C     1.130000000     0.618000000    -4.371000000
C     2.240000000     0.890000000    -3.601000000
H     2.979000000     0.108000000    -3.448000000
C     2.377000000     2.148000000    -2.962000000
O     3.489000000     2.350000000    -2.254000000
C     3.305000000     2.470000000    -0.776000000
H     2.301000000     2.064000000    -0.583000000
C     4.480000000     1.656000000    -0.124000000
C     4.766000000     2.001000000     1.185000000
H     4.421000000     2.972000000     1.532000000
C     4.914000000     0.415000000    -0.629000000
H     4.633000000     0.090000000    -1.628000000
C     5.818000000    -0.383000000     0.116000000
O     6.161000000    -1.576000000    -0.246000000
C     6.107000000     0.044000000     1.405000000
H     6.826000000    -0.476000000     2.033000000
C     5.592000000     1.220000000     1.954000000
O     6.071000000     1.667000000     3.177000000
C     5.331000000     2.270000000     4.068000000
C     4.266000000     1.645000000     4.610000000
H     4.149000000     0.587000000     4.392000000
C     5.670000000     3.577000000     4.466000000
H     6.568000000     3.994000000     4.016000000
C     4.807000000     4.293000000     5.299000000
H     4.895000000     5.369000000     5.429000000
C     3.691000000     3.610000000     5.776000000
H     2.954000000     4.211000000     6.302000000
C     3.423000000     2.333000000     5.427000000
O     2.430000000     1.670000000     6.129000000
C     1.172000000     1.499000000     5.552000000
C     0.422000000     0.389000000     5.893000000
H     0.798000000    -0.264000000     6.676000000
C    -0.782000000     0.111000000     5.332000000
O    -1.387000000    -1.110000000     5.764000000
C    -2.723000000    -1.343000000     5.828000000
C    -3.331000000    -2.054000000     4.778000000
H    -2.751000000    -2.473000000     3.960000000
C    -3.492000000    -0.784000000     6.865000000
H    -3.000000000    -0.176000000     7.620000000
C    -4.866000000    -1.002000000     6.846000000
H    -5.523000000    -0.596000000     7.611000000
C    -5.449000000    -1.865000000     5.926000000
H    -6.503000000    -2.119000000     6.014000000
C    -4.686000000    -2.390000000     4.871000000
O    -5.381000000    -3.116000000     3.870000000
C    -4.884000000    -3.118000000     2.606000000
C    -4.309000000    -4.303000000     2.120000000
H    -4.351000000    -5.176000000     2.765000000
C    -3.816000000    -4.347000000     0.815000000
O    -3.293000000    -5.527000000     0.412000000
C    -2.961000000    -5.730000000    -0.884000000
C    -1.547000000    -5.942000000    -1.179000000
H    -0.797000000    -5.759000000    -0.415000000
C    -3.916000000    -5.984000000    -1.861000000
H    -4.965000000    -5.904000000    -1.587000000
C    -3.593000000    -6.501000000    -3.121000000
H    -4.333000000    -6.786000000    -3.864000000
C    -2.236000000    -6.607000000    -3.411000000
H    -1.904000000    -6.860000000    -4.415000000
C    -1.266000000    -6.249000000    -2.526000000
O     0.088000000    -6.271000000    -2.787000000
C     0.740000000    -5.163000000    -3.174000000
C     2.136000000    -5.258000000    -3.224000000
H     2.524000000    -6.246000000    -2.991000000
C     2.907000000    -4.147000000    -3.523000000
O     4.272000000    -4.337000000    -3.613000000
C     5.192000000    -3.362000000    -3.225000000
C     5.956000000    -2.767000000    -4.176000000
H     5.809000000    -3.075000000    -5.208000000
C     6.902000000    -1.768000000    -3.809000000
H     7.593000000    -1.317000000    -4.518000000
C     7.042000000    -1.425000000    -2.475000000
H     7.751000000    -0.693000000    -2.096000000
C     6.154000000    -1.944000000    -1.568000000
C     5.250000000    -2.865000000    -1.920000000
H     4.532000000    -3.264000000    -1.209000000
C     1.463000000    -0.550000000     2.162000000
H     2.396000000    -0.420000000     2.703000000
C     1.013000000     0.410000000     1.255000000
H     1.484000000     1.382000000     1.136000000
C    -0.087000000     0.112000000     0.419000000
C    -0.433000000     1.077000000    -0.733000000
H    -0.531000000     0.408000000    -1.590000000
H    -1.389000000     1.606000000    -0.749000000
H     0.166000000     1.916000000    -1.092000000
C    -0.818000000    -1.062000000     0.612000000
H    -1.672000000    -1.327000000    -0.007000000
C    -0.388000000    -2.035000000     1.459000000
H    -1.066000000    -2.868000000     1.625000000
C     0.757000000    -1.789000000     2.284000000
C     1.272000000    -2.837000000     3.244000000
O     0.918000000    -4.002000000     3.172000000
O     2.275000000    -2.567000000     3.845000000
O     3.413000000    -2.112000000     6.245000000
H     2.758000000    -2.116000000     6.944000000
H     2.909000000    -1.964000000     5.445000000
O     2.323000000    -4.828000000     0.736000000
H     1.910000000    -4.535000000     1.549000000
H     3.158000000    -4.363000000     0.710000000
O     5.026000000    -4.073000000     1.298000000
H     5.498000000    -3.541000000     0.658000000
H     5.434000000    -4.937000000     1.240000000
O     6.069000000    -1.470000000     7.002000000
H     6.473000000    -1.461000000     6.135000000
H     5.139000000    -1.614000000     6.832000000
O     6.180000000    -4.628000000     6.599000000
H     6.212000000    -3.794000000     6.130000000
H     5.951000000    -5.271000000     5.927000000
O     3.831000000    -6.489000000     2.258000000
H     3.286000000    -5.833000000     1.823000000
H     3.828000000    -6.229000000     3.179000000
O     0.264000000    -7.105000000     6.558000000
H     0.931000000    -6.900000000     5.903000000
H     0.746000000    -7.156000000     7.383000000
O    -1.762000000    -4.847000000     5.981000000
H    -1.735000000    -5.690000000     6.434000000
H    -0.913000000    -4.447000000     6.168000000
O     0.876000000    -3.827000000     6.303000000
H     1.061000000    -3.397000000     5.469000000
H     1.679000000    -4.306000000     6.510000000
O     2.881000000    -2.217000000     9.027000000
H     3.688000000    -1.909000000     9.438000000
H     2.199000000    -2.040000000     9.674000000
O    -1.114000000    -2.281000000     8.949000000
H    -0.759000000    -2.453000000     8.077000000
H    -1.144000000    -3.141000000     9.369000000
O    -0.940000000    -5.765000000     3.262000000
H    -0.244000000    -5.116000000     3.163000000
H    -1.350000000    -5.551000000     4.100000000
O     5.011000000    -3.795000000     4.081000000
H     5.131000000    -3.995000000     3.153000000
H     4.289000000    -3.167000000     4.100000000
O     0.839000000    -8.883000000     3.583000000
H     1.074000000    -8.094000000     4.072000000
H     0.337000000    -8.560000000     2.835000000
O     1.888000000    -6.365000000     4.341000000
H     2.652000000    -5.907000000     4.692000000
H     1.363000000    -5.677000000     3.931000000
O     7.089000000    -1.745000000     4.513000000
H     6.911000000    -2.498000000     3.948000000
H     8.035000000    -1.615000000     4.447000000
O     2.277000000    -7.641000000     0.348000000
H     1.769000000    -6.854000000     0.544000000
H     3.048000000    -7.575000000     0.912000000
O    -2.103000000    -8.307000000     2.127000000
H    -3.042000000    -8.138000000     2.050000000
H    -1.698000000    -7.441000000     2.067000000
O     3.282000000    -4.933000000     6.815000000
H     3.774000000    -5.175000000     7.599000000
H     3.846000000    -4.306000000     6.362000000
