218
-1489.95822
C    -1.847000000     1.277000000     4.991000000
H    -2.826000000     1.376000000     4.528000000
C    -0.877000000     2.131000000     4.414000000
C     0.450000000     2.054000000     4.881000000
H     1.172000000     2.688000000     4.373000000
C    -1.207000000     2.898000000     3.125000000
O    -2.594000000     3.213000000     3.056000000
H    -1.041000000     2.270000000     2.237000000
O    -0.345000000     4.076000000     2.916000000
C     0.093000000     4.398000000     1.684000000
C     1.450000000     4.100000000     1.444000000
H     2.110000000     3.736000000     2.227000000
C     1.986000000     4.134000000     0.136000000
O     3.270000000     3.636000000    -0.063000000
C     1.109000000     4.655000000    -0.905000000
C     1.678000000     4.757000000    -2.310000000
H     1.138000000     5.587000000    -2.772000000
C     1.542000000     3.435000000    -3.080000000
C     0.422000000     3.252000000    -3.893000000
H    -0.198000000     4.139000000    -3.991000000
H     2.698000000     5.147000000    -2.299000000
C    -0.169000000     5.057000000    -0.624000000
H    -0.753000000     5.507000000    -1.424000000
C    -0.746000000     4.851000000     0.631000000
C    -2.233000000     5.042000000     0.883000000
H    -2.430000000     5.906000000     0.245000000
H    -2.370000000     5.421000000     1.897000000
C    -3.108000000     3.896000000     0.786000000
C    -3.607000000     3.499000000    -0.522000000
H    -3.315000000     4.080000000    -1.393000000
C    -3.234000000     3.009000000     1.840000000
C    -3.980000000     1.855000000     1.732000000
H    -4.109000000     1.170000000     2.567000000
C    -4.335000000     1.422000000     0.490000000
O    -4.679000000     0.127000000     0.516000000
C    -3.884000000    -0.791000000    -0.237000000
C    -3.839000000    -2.077000000     0.523000000
C    -3.253000000    -3.227000000    -0.083000000
H    -3.012000000    -3.206000000    -1.143000000
C    -4.261000000    -2.161000000     1.878000000
H    -4.639000000    -1.310000000     2.439000000
O    -4.389000000    -1.006000000    -1.568000000
H    -2.889000000    -0.322000000    -0.252000000
C    -4.305000000     2.284000000    -0.634000000
C    -4.859000000     1.928000000    -2.035000000
H    -5.116000000     2.784000000    -2.662000000
H    -5.800000000     1.412000000    -1.833000000
C    -3.873000000     1.045000000    -2.766000000
C    -3.098000000     1.676000000    -3.681000000
H    -3.251000000     2.743000000    -3.819000000
C    -3.754000000    -0.326000000    -2.564000000
C    -2.784000000    -1.050000000    -3.189000000
H    -2.680000000    -2.117000000    -3.008000000
C    -1.968000000    -0.394000000    -4.171000000
O    -0.969000000    -1.169000000    -4.783000000
C     0.337000000    -1.154000000    -4.187000000
C     0.929000000    -2.523000000    -4.124000000
C     0.117000000    -3.652000000    -4.047000000
H    -0.960000000    -3.517000000    -4.090000000
C     2.288000000    -2.685000000    -3.940000000
H     2.992000000    -1.858000000    -3.898000000
O     1.132000000    -0.223000000    -4.933000000
H     0.294000000    -0.842000000    -3.133000000
C    -2.071000000     0.975000000    -4.348000000
C    -1.056000000     1.689000000    -5.191000000
H    -1.404000000     2.668000000    -5.527000000
H    -0.795000000     1.051000000    -6.038000000
C     0.234000000     1.992000000    -4.475000000
C     1.244000000     1.048000000    -4.397000000
C     2.452000000     1.286000000    -3.758000000
H     3.258000000     0.564000000    -3.648000000
C     2.537000000     2.453000000    -2.981000000
O     3.657000000     2.519000000    -2.163000000
C     3.445000000     2.361000000    -0.759000000
H     2.536000000     1.763000000    -0.600000000
C     4.522000000     1.458000000    -0.084000000
C     4.536000000     1.383000000     1.331000000
H     3.776000000     1.919000000     1.894000000
C     5.373000000     0.707000000    -0.842000000
H     5.304000000     0.751000000    -1.926000000
C     6.197000000    -0.308000000    -0.304000000
O     6.968000000    -1.146000000    -1.055000000
C     6.255000000    -0.334000000     1.120000000
H     6.884000000    -1.144000000     1.480000000
C     5.445000000     0.446000000     1.916000000
O     5.317000000     0.039000000     3.271000000
C     4.858000000     0.835000000     4.273000000
C     3.614000000     0.588000000     4.888000000
H     3.045000000    -0.317000000     4.690000000
C     5.733000000     1.820000000     4.810000000
H     6.665000000     1.973000000     4.271000000
C     5.327000000     2.685000000     5.838000000
H     5.989000000     3.481000000     6.169000000
C     4.061000000     2.411000000     6.391000000
H     3.834000000     2.880000000     7.345000000
C     3.201000000     1.429000000     5.925000000
O     2.047000000     1.159000000     6.598000000
C     0.766000000     1.199000000     5.990000000
C    -0.232000000     0.514000000     6.632000000
H     0.045000000    -0.142000000     7.453000000
C    -1.549000000     0.541000000     6.147000000
O    -2.558000000    -0.192000000     6.817000000
C    -3.622000000    -0.753000000     6.273000000
C    -3.434000000    -1.655000000     5.200000000
H    -2.456000000    -1.992000000     4.866000000
C    -4.859000000    -0.247000000     6.639000000
H    -4.866000000     0.639000000     7.269000000
C    -6.018000000    -0.746000000     5.885000000
H    -7.002000000    -0.287000000     5.926000000
C    -5.803000000    -1.808000000     5.004000000
H    -6.629000000    -2.309000000     4.506000000
C    -4.565000000    -2.350000000     4.725000000
O    -4.420000000    -3.437000000     3.896000000
C    -4.095000000    -3.334000000     2.572000000
C    -3.536000000    -4.405000000     1.949000000
H    -3.310000000    -5.270000000     2.568000000
C    -3.253000000    -4.423000000     0.626000000
O    -2.613000000    -5.503000000     0.109000000
C    -2.589000000    -5.733000000    -1.258000000
C    -1.377000000    -5.895000000    -1.916000000
H    -0.506000000    -5.702000000    -1.296000000
C    -3.774000000    -5.852000000    -2.000000000
H    -4.738000000    -5.714000000    -1.518000000
C    -3.722000000    -6.023000000    -3.371000000
H    -4.636000000    -5.941000000    -3.953000000
C    -2.528000000    -6.144000000    -3.982000000
H    -2.469000000    -6.260000000    -5.061000000
C    -1.377000000    -6.083000000    -3.235000000
O    -0.112000000    -6.049000000    -3.831000000
C     0.669000000    -4.952000000    -3.971000000
C     2.099000000    -5.089000000    -3.742000000
H     2.451000000    -6.106000000    -3.588000000
C     2.883000000    -3.958000000    -3.809000000
O     4.247000000    -4.052000000    -3.751000000
C     5.137000000    -2.987000000    -3.664000000
C     5.780000000    -2.462000000    -4.816000000
H     5.558000000    -2.872000000    -5.798000000
C     6.784000000    -1.569000000    -4.683000000
H     7.288000000    -1.166000000    -5.558000000
C     7.131000000    -1.071000000    -3.415000000
H     8.000000000    -0.433000000    -3.281000000
C     6.508000000    -1.572000000    -2.261000000
C     5.540000000    -2.546000000    -2.366000000
H     5.181000000    -2.900000000    -1.404000000
C     2.562000000    -1.714000000     1.319000000
H     3.307000000    -1.662000000     2.109000000
C     1.743000000    -0.636000000     1.089000000
H     1.830000000     0.303000000     1.628000000
C     0.824000000    -0.681000000     0.029000000
C    -0.178000000     0.443000000    -0.168000000
H     0.273000000     1.430000000    -0.290000000
H    -0.849000000     0.408000000    -1.029000000
H    -0.764000000     0.404000000     0.752000000
C     0.595000000    -1.902000000    -0.654000000
H    -0.240000000    -2.067000000    -1.329000000
C     1.448000000    -3.003000000    -0.395000000
H     1.307000000    -3.942000000    -0.923000000
C     2.452000000    -2.856000000     0.594000000
C     3.334000000    -4.009000000     0.894000000
O     3.335000000    -5.016000000     0.164000000
O     4.261000000    -3.897000000     1.765000000
O    -0.257000000    -3.836000000     2.074000000
H    -0.454000000    -4.082000000     1.170000000
H     0.691000000    -3.699000000     2.083000000
O     1.080000000    -6.571000000     0.766000000
H     1.826000000    -5.974000000     0.719000000
H     1.464000000    -7.442000000     0.660000000
O     6.760000000    -4.944000000     1.879000000
H     6.767000000    -5.312000000     0.995000000
H     5.934000000    -4.463000000     1.931000000
O     2.555000000    -8.811000000     1.991000000
H     3.127000000    -9.534000000     2.248000000
H     3.133000000    -8.194000000     1.543000000
O     5.480000000    -8.334000000     4.977000000
H     5.683000000    -8.735000000     4.132000000
H     5.819000000    -7.442000000     4.906000000
O     6.928000000    -8.226000000     2.149000000
H     7.364000000    -8.594000000     1.380000000
H     7.629000000    -8.109000000     2.789000000
O     7.354000000    -6.138000000    -0.580000000
H     8.049000000    -5.786000000    -1.136000000
H     6.559000000    -6.047000000    -1.104000000
O     4.188000000    -9.563000000    -0.705000000
H     3.493000000    -9.647000000    -1.358000000
H     4.098000000    -8.670000000    -0.373000000
O    -1.060000000    -7.450000000     2.348000000
H    -0.558000000    -6.881000000     1.764000000
H    -0.601000000    -7.398000000     3.186000000
O     2.761000000    -5.624000000     4.125000000
H     3.290000000    -5.455000000     4.905000000
H     3.185000000    -5.115000000     3.434000000
O     4.738000000    -3.409000000     4.192000000
H     4.539000000    -3.683000000     3.297000000
H     5.029000000    -2.501000000     4.106000000
O    -0.001000000    -9.538000000     0.833000000
H    -0.591000000    -9.070000000     1.423000000
H     0.871000000    -9.387000000     1.196000000
O     4.527000000    -7.264000000     0.671000000
H     5.449000000    -7.208000000     0.922000000
H     4.297000000    -6.375000000     0.404000000
O     4.955000000    -6.584000000    -2.296000000
H     4.157000000    -6.414000000    -1.795000000
H     5.091000000    -5.787000000    -2.808000000
O     9.585000000    -4.684000000     2.180000000
H     8.716000000    -5.087000000     2.204000000
H     9.480000000    -3.923000000     1.610000000
O    -0.770000000    -4.171000000     4.971000000
H    -0.729000000    -3.821000000     4.081000000
H    -0.792000000    -5.121000000     4.855000000
O     4.672000000    -2.550000000     6.780000000
H     4.249000000    -3.174000000     6.190000000
H     5.569000000    -2.484000000     6.455000000
O     1.052000000    -7.979000000     4.384000000
H     1.648000000    -7.278000000     4.647000000
H     1.364000000    -8.247000000     3.519000000
O     6.289000000    -5.812000000     4.584000000
H     6.605000000    -5.480000000     3.744000000
H     5.697000000    -5.132000000     4.904000000
