218
-1458.69300
C     0.196000000    -0.008000000     5.043000000
H    -0.803000000    -0.353000000     4.789000000
C     0.549000000     1.116000000     4.361000000
C     1.902000000     1.512000000     4.503000000
H     2.127000000     2.445000000     3.993000000
C    -0.468000000     1.942000000     3.578000000
O    -1.854000000     1.551000000     4.005000000
H    -0.393000000     1.579000000     2.542000000
O    -0.186000000     3.317000000     3.696000000
C    -0.304000000     4.075000000     2.526000000
C     0.884000000     4.282000000     1.777000000
H     1.857000000     4.042000000     2.197000000
C     0.854000000     4.715000000     0.462000000
O     2.028000000     4.815000000    -0.217000000
C    -0.357000000     4.946000000    -0.161000000
C    -0.566000000     5.236000000    -1.645000000
H    -1.592000000     5.601000000    -1.719000000
C    -0.487000000     3.965000000    -2.463000000
C    -1.668000000     3.457000000    -2.991000000
H    -2.636000000     3.868000000    -2.715000000
H     0.078000000     5.974000000    -2.129000000
C    -1.524000000     4.627000000     0.552000000
H    -2.450000000     4.634000000    -0.017000000
C    -1.502000000     4.249000000     1.856000000
C    -2.819000000     3.793000000     2.509000000
H    -3.657000000     4.460000000     2.296000000
H    -2.647000000     3.902000000     3.582000000
C    -3.254000000     2.352000000     2.237000000
C    -4.122000000     2.042000000     1.233000000
H    -4.515000000     2.794000000     0.553000000
C    -2.820000000     1.289000000     3.074000000
C    -3.326000000     0.006000000     3.020000000
H    -2.787000000    -0.824000000     3.470000000
C    -4.300000000    -0.217000000     2.041000000
O    -4.730000000    -1.478000000     1.796000000
C    -3.927000000    -2.232000000     0.770000000
C    -3.422000000    -3.588000000     1.264000000
C    -3.006000000    -4.465000000     0.300000000
H    -3.046000000    -4.175000000    -0.747000000
C    -3.317000000    -3.851000000     2.545000000
H    -3.736000000    -3.083000000     3.191000000
O    -4.588000000    -2.275000000    -0.510000000
H    -3.024000000    -1.687000000     0.459000000
C    -4.658000000     0.781000000     1.115000000
C    -5.583000000     0.385000000    -0.049000000
H    -6.311000000     1.158000000    -0.304000000
H    -6.202000000    -0.478000000     0.205000000
C    -4.811000000     0.002000000    -1.336000000
C    -4.405000000     0.970000000    -2.268000000
H    -4.608000000     1.990000000    -1.951000000
C    -4.334000000    -1.285000000    -1.458000000
C    -3.550000000    -1.670000000    -2.526000000
H    -3.160000000    -2.684000000    -2.549000000
C    -3.078000000    -0.676000000    -3.397000000
O    -2.122000000    -1.063000000    -4.324000000
C    -0.744000000    -0.652000000    -4.010000000
C     0.201000000    -1.814000000    -4.234000000
C    -0.257000000    -3.136000000    -4.365000000
H    -1.279000000    -3.370000000    -4.652000000
C     1.534000000    -1.576000000    -4.117000000
H     1.969000000    -0.598000000    -3.926000000
O    -0.284000000     0.570000000    -4.729000000
H    -0.714000000    -0.355000000    -2.951000000
C    -3.463000000     0.636000000    -3.241000000
C    -2.926000000     1.678000000    -4.173000000
H    -3.693000000     2.452000000    -4.230000000
H    -2.830000000     1.332000000    -5.204000000
C    -1.612000000     2.283000000    -3.736000000
C    -0.340000000     1.773000000    -4.079000000
C     0.853000000     2.417000000    -3.793000000
H     1.791000000     2.084000000    -4.231000000
C     0.738000000     3.546000000    -2.968000000
O     1.832000000     4.113000000    -2.475000000
C     2.288000000     3.718000000    -1.147000000
H     1.694000000     2.876000000    -0.761000000
C     3.735000000     3.299000000    -1.078000000
C     4.381000000     3.213000000     0.143000000
H     3.883000000     3.575000000     1.038000000
C     4.284000000     2.692000000    -2.220000000
H     3.678000000     2.621000000    -3.119000000
C     5.589000000     2.166000000    -2.154000000
O     6.203000000     1.592000000    -3.269000000
C     6.299000000     2.193000000    -0.925000000
H     7.281000000     1.727000000    -0.905000000
C     5.705000000     2.662000000     0.247000000
O     6.462000000     2.528000000     1.419000000
C     5.909000000     2.825000000     2.646000000
C     5.298000000     1.887000000     3.382000000
H     5.257000000     0.869000000     3.002000000
C     6.050000000     4.132000000     3.108000000
H     6.507000000     4.932000000     2.531000000
C     5.345000000     4.544000000     4.259000000
H     5.422000000     5.554000000     4.655000000
C     4.640000000     3.596000000     4.980000000
H     4.097000000     3.848000000     5.888000000
C     4.698000000     2.257000000     4.628000000
O     4.086000000     1.294000000     5.471000000
C     2.826000000     0.782000000     5.243000000
C     2.487000000    -0.397000000     5.813000000
H     3.215000000    -0.997000000     6.352000000
C     1.154000000    -0.795000000     5.696000000
O     0.792000000    -2.036000000     6.278000000
C    -0.529000000    -2.569000000     6.234000000
C    -0.828000000    -3.682000000     5.412000000
H    -0.052000000    -4.192000000     4.847000000
C    -1.581000000    -1.977000000     6.937000000
H    -1.450000000    -1.106000000     7.573000000
C    -2.859000000    -2.498000000     6.876000000
H    -3.613000000    -1.993000000     7.473000000
C    -3.128000000    -3.570000000     6.005000000
H    -4.103000000    -4.051000000     6.002000000
C    -2.140000000    -4.104000000     5.120000000
O    -2.386000000    -5.189000000     4.341000000
C    -2.587000000    -4.995000000     3.030000000
C    -2.159000000    -5.914000000     2.061000000
H    -1.505000000    -6.751000000     2.294000000
C    -2.311000000    -5.625000000     0.693000000
O    -1.721000000    -6.474000000    -0.247000000
C    -1.831000000    -6.303000000    -1.637000000
C    -0.729000000    -6.030000000    -2.399000000
H     0.228000000    -5.957000000    -1.889000000
C    -3.098000000    -6.415000000    -2.214000000
H    -3.947000000    -6.668000000    -1.583000000
C    -3.238000000    -6.387000000    -3.614000000
H    -4.249000000    -6.503000000    -3.996000000
C    -2.153000000    -6.109000000    -4.421000000
H    -2.241000000    -5.767000000    -5.449000000
C    -0.914000000    -5.903000000    -3.826000000
O     0.141000000    -5.556000000    -4.621000000
C     0.608000000    -4.257000000    -4.449000000
C     2.009000000    -3.956000000    -4.350000000
H     2.758000000    -4.737000000    -4.453000000
C     2.453000000    -2.619000000    -4.189000000
O     3.787000000    -2.431000000    -4.199000000
C     4.410000000    -1.350000000    -4.688000000
C     4.369000000    -0.898000000    -5.969000000
H     3.895000000    -1.482000000    -6.753000000
C     4.862000000     0.311000000    -6.434000000
H     4.846000000     0.586000000    -7.486000000
C     5.530000000     1.110000000    -5.519000000
H     5.862000000     2.047000000    -5.959000000
C     5.583000000     0.723000000    -4.223000000
C     5.039000000    -0.478000000    -3.788000000
H     5.043000000    -0.624000000    -2.711000000
C     3.145000000     0.119000000     0.801000000
H     3.878000000     0.606000000     1.439000000
C     1.826000000     0.552000000     0.772000000
H     1.536000000     1.502000000     1.212000000
C     0.889000000    -0.195000000     0.075000000
C    -0.620000000     0.198000000     0.195000000
H    -0.853000000     1.254000000     0.040000000
H    -1.167000000    -0.356000000    -0.571000000
H    -1.207000000    -0.251000000     0.999000000
C     1.230000000    -1.349000000    -0.541000000
H     0.452000000    -1.928000000    -1.033000000
C     2.571000000    -1.709000000    -0.690000000
H     2.825000000    -2.540000000    -1.343000000
C     3.558000000    -0.944000000    -0.019000000
C     5.019000000    -1.382000000     0.039000000
O     5.333000000    -2.472000000    -0.463000000
O     5.857000000    -0.833000000     0.727000000
O     8.201000000     0.076000000     1.467000000
H     7.976000000     0.956000000     1.769000000
H     7.391000000    -0.260000000     1.084000000
O     8.865000000    -0.338000000    -2.928000000
H     8.325000000    -1.128000000    -2.894000000
H     8.862000000    -0.085000000    -3.851000000
O    10.072000000     0.218000000    -0.596000000
H     9.508000000    -0.210000000    -1.241000000
H     9.610000000     0.111000000     0.235000000
O     6.873000000    -3.201000000    -5.988000000
H     7.501000000    -2.646000000    -6.451000000
H     6.645000000    -2.701000000    -5.204000000
O     5.764000000    -2.165000000     3.041000000
H     6.643000000    -2.542000000     3.083000000
H     5.778000000    -1.611000000     2.260000000
O     8.656000000    -5.220000000    -1.047000000
H     8.949000000    -4.899000000    -1.899000000
H     9.460000000    -5.313000000    -0.536000000
O     3.638000000    -6.274000000    -0.400000000
H     3.969000000    -5.963000000     0.443000000
H     4.003000000    -5.662000000    -1.040000000
O     1.797000000    -3.626000000     2.043000000
H     2.718000000    -3.726000000     1.803000000
H     1.495000000    -2.878000000     1.527000000
O     9.534000000     2.916000000    -2.608000000
H     9.090000000     2.069000000    -2.591000000
H     9.696000000     3.120000000    -1.687000000
O     4.560000000    -4.361000000     1.500000000
H     4.682000000    -3.700000000     0.818000000
H     5.116000000    -4.066000000     2.221000000
O     7.196000000    -0.094000000     4.876000000
H     6.857000000    -0.016000000     5.767000000
H     6.669000000    -0.789000000     4.479000000
O     2.981000000    -4.973000000     5.027000000
H     3.300000000    -5.874000000     4.972000000
H     2.437000000    -4.864000000     4.247000000
O     8.378000000    -2.986000000     3.229000000
H     8.058000000    -3.183000000     2.349000000
H     9.089000000    -2.360000000     3.091000000
O     7.168000000    -2.492000000    -3.245000000
H     7.538000000    -3.374000000    -3.275000000
H     6.507000000    -2.533000000    -2.553000000
O     1.907000000    -6.545000000     2.266000000
H     1.914000000    -5.650000000     1.927000000
H     0.986000000    -6.721000000     2.457000000
O     7.815000000    -3.183000000     0.599000000
H     7.989000000    -3.932000000     0.029000000
H     7.048000000    -2.760000000     0.212000000
O     5.081000000    -4.822000000    -1.973000000
H     5.405000000    -4.012000000    -1.581000000
H     5.122000000    -4.665000000    -2.916000000
O     6.178000000    -5.911000000     4.061000000
H     6.490000000    -6.024000000     3.163000000
H     5.225000000    -5.885000000     3.982000000
O    10.753000000    -3.066000000     0.222000000
H     9.817000000    -2.965000000     0.393000000
H    11.015000000    -2.234000000    -0.174000000
