218
-1449.62871
C    -1.274000000     0.072000000     4.787000000
H    -2.319000000    -0.113000000     4.554000000
C    -0.666000000     1.233000000     4.216000000
C     0.782000000     1.257000000     4.260000000
H     1.339000000     2.070000000     3.802000000
C    -1.396000000     2.186000000     3.305000000
O    -2.828000000     2.235000000     3.508000000
H    -1.178000000     1.887000000     2.269000000
O    -0.895000000     3.503000000     3.362000000
C    -0.520000000     4.034000000     2.115000000
C     0.870000000     3.989000000     1.757000000
H     1.636000000     3.788000000     2.502000000
C     1.328000000     4.427000000     0.536000000
O     2.686000000     4.220000000     0.279000000
C     0.377000000     4.782000000    -0.436000000
C     0.688000000     5.241000000    -1.823000000
H    -0.196000000     5.764000000    -2.192000000
C     0.884000000     4.013000000    -2.782000000
C    -0.234000000     3.575000000    -3.502000000
H    -1.152000000     4.141000000    -3.367000000
H     1.610000000     5.825000000    -1.779000000
C    -1.008000000     4.821000000    -0.124000000
H    -1.775000000     5.167000000    -0.812000000
C    -1.492000000     4.479000000     1.206000000
C    -2.982000000     4.417000000     1.591000000
H    -3.485000000     5.116000000     0.919000000
H    -3.093000000     4.808000000     2.604000000
C    -3.597000000     3.023000000     1.407000000
C    -4.118000000     2.707000000     0.146000000
H    -4.119000000     3.469000000    -0.629000000
C    -3.497000000     1.968000000     2.368000000
C    -4.245000000     0.787000000     2.223000000
H    -4.342000000     0.105000000     3.064000000
C    -4.727000000     0.526000000     0.942000000
O    -5.164000000    -0.751000000     0.688000000
C    -4.182000000    -1.531000000    -0.008000000
C    -4.158000000    -2.925000000     0.550000000
C    -3.484000000    -3.925000000    -0.161000000
H    -3.063000000    -3.732000000    -1.144000000
C    -4.533000000    -3.198000000     1.861000000
H    -5.026000000    -2.397000000     2.406000000
O    -4.532000000    -1.649000000    -1.409000000
H    -3.156000000    -1.144000000     0.078000000
C    -4.728000000     1.479000000    -0.136000000
C    -5.343000000     1.061000000    -1.429000000
H    -5.786000000     1.963000000    -1.857000000
H    -6.143000000     0.369000000    -1.160000000
C    -4.237000000     0.510000000    -2.283000000
C    -3.498000000     1.386000000    -3.079000000
H    -3.673000000     2.458000000    -3.134000000
C    -3.944000000    -0.816000000    -2.326000000
C    -2.887000000    -1.266000000    -3.091000000
H    -2.704000000    -2.336000000    -3.151000000
C    -2.063000000    -0.449000000    -3.831000000
O    -1.015000000    -0.989000000    -4.510000000
C     0.295000000    -0.689000000    -3.926000000
C     1.153000000    -1.961000000    -3.842000000
C     0.531000000    -3.170000000    -3.787000000
H    -0.507000000    -3.216000000    -4.106000000
C     2.525000000    -1.896000000    -3.743000000
H     3.092000000    -0.976000000    -3.627000000
O     0.940000000     0.357000000    -4.652000000
H     0.226000000    -0.367000000    -2.876000000
C    -2.442000000     0.890000000    -3.858000000
C    -1.584000000     1.835000000    -4.743000000
H    -2.251000000     2.620000000    -5.106000000
H    -1.346000000     1.295000000    -5.662000000
C    -0.309000000     2.323000000    -4.079000000
C     0.903000000     1.639000000    -4.168000000
C     2.084000000     2.066000000    -3.524000000
H     2.913000000     1.363000000    -3.493000000
C     2.040000000     3.227000000    -2.807000000
O     3.129000000     3.561000000    -1.991000000
C     3.110000000     3.113000000    -0.584000000
H     2.321000000     2.356000000    -0.462000000
C     4.439000000     2.575000000    -0.160000000
C     5.023000000     2.847000000     1.083000000
H     4.465000000     3.452000000     1.792000000
C     5.188000000     1.815000000    -1.071000000
H     4.803000000     1.510000000    -2.041000000
C     6.422000000     1.254000000    -0.671000000
O     7.102000000     0.270000000    -1.379000000
C     6.921000000     1.531000000     0.550000000
H     7.869000000     1.113000000     0.879000000
C     6.242000000     2.303000000     1.455000000
O     6.618000000     2.478000000     2.741000000
C     5.640000000     2.452000000     3.716000000
C     4.700000000     1.353000000     3.816000000
H     4.929000000     0.487000000     3.201000000
C     5.603000000     3.501000000     4.651000000
H     6.257000000     4.368000000     4.604000000
C     4.609000000     3.447000000     5.656000000
H     4.564000000     4.352000000     6.256000000
C     3.616000000     2.466000000     5.682000000
H     2.767000000     2.572000000     6.353000000
C     3.756000000     1.371000000     4.769000000
O     2.861000000     0.294000000     4.871000000
C     1.467000000     0.330000000     5.019000000
C     0.822000000    -0.812000000     5.566000000
H     1.389000000    -1.656000000     5.950000000
C    -0.544000000    -0.898000000     5.505000000
O    -1.181000000    -2.055000000     6.015000000
C    -2.520000000    -2.479000000     5.795000000
C    -2.834000000    -3.377000000     4.836000000
H    -2.130000000    -3.509000000     4.018000000
C    -3.508000000    -1.850000000     6.545000000
H    -3.176000000    -0.991000000     7.122000000
C    -4.804000000    -2.399000000     6.592000000
H    -5.515000000    -1.878000000     7.229000000
C    -5.106000000    -3.426000000     5.710000000
H    -6.103000000    -3.847000000     5.614000000
C    -4.191000000    -3.871000000     4.730000000
O    -4.582000000    -4.653000000     3.686000000
C    -4.233000000    -4.464000000     2.370000000
C    -3.567000000    -5.431000000     1.648000000
H    -3.356000000    -6.369000000     2.154000000
C    -3.285000000    -5.204000000     0.361000000
O    -2.777000000    -6.232000000    -0.422000000
C    -2.436000000    -6.040000000    -1.753000000
C    -1.074000000    -5.927000000    -2.161000000
H    -0.271000000    -5.902000000    -1.428000000
C    -3.370000000    -6.116000000    -2.765000000
H    -4.370000000    -6.352000000    -2.411000000
C    -3.039000000    -5.898000000    -4.101000000
H    -3.810000000    -5.988000000    -4.862000000
C    -1.696000000    -5.708000000    -4.474000000
H    -1.356000000    -5.537000000    -5.492000000
C    -0.744000000    -5.780000000    -3.523000000
O     0.597000000    -5.627000000    -3.791000000
C     1.268000000    -4.423000000    -3.821000000
C     2.682000000    -4.332000000    -3.746000000
H     3.370000000    -5.167000000    -3.640000000
C     3.271000000    -3.057000000    -3.810000000
O     4.639000000    -2.936000000    -3.774000000
C     5.457000000    -1.816000000    -3.798000000
C     5.438000000    -0.950000000    -4.850000000
H     4.817000000    -1.032000000    -5.738000000
C     6.128000000     0.257000000    -4.868000000
H     6.036000000     0.991000000    -5.664000000
C     6.785000000     0.658000000    -3.709000000
H     7.199000000     1.656000000    -3.592000000
C     6.747000000    -0.176000000    -2.636000000
C     6.177000000    -1.467000000    -2.679000000
H     6.379000000    -2.087000000    -1.809000000
C     2.474000000    -0.838000000     0.898000000
H     3.382000000    -0.547000000     1.420000000
C     1.509000000     0.107000000     0.620000000
H     1.652000000     1.087000000     1.068000000
C     0.326000000    -0.295000000    -0.015000000
C    -0.728000000     0.771000000    -0.300000000
H    -1.529000000     0.791000000     0.442000000
H    -0.342000000     1.792000000    -0.295000000
H    -1.292000000     0.680000000    -1.230000000
C     0.183000000    -1.581000000    -0.409000000
H    -0.711000000    -1.987000000    -0.876000000
C     1.173000000    -2.473000000    -0.271000000
H     0.989000000    -3.508000000    -0.547000000
C     2.239000000    -2.171000000     0.578000000
C     3.213000000    -3.260000000     0.927000000
O     2.917000000    -4.448000000     0.758000000
O     4.122000000    -2.964000000     1.615000000
O     7.872000000    -4.485000000     2.194000000
H     8.005000000    -3.605000000     1.843000000
H     8.567000000    -4.591000000     2.843000000
O     8.482000000    -2.221000000     0.125000000
H     8.704000000    -2.422000000    -0.784000000
H     9.243000000    -2.514000000     0.627000000
O     5.353000000    -4.957000000    -0.337000000
H     5.810000000    -4.568000000     0.409000000
H     4.451000000    -4.645000000    -0.254000000
O     3.871000000    -2.266000000     4.321000000
H     3.852000000    -2.476000000     3.387000000
H     3.267000000    -1.529000000     4.413000000
O     4.436000000    -8.213000000     1.302000000
H     4.774000000    -8.948000000     0.791000000
H     5.164000000    -7.962000000     1.871000000
O     5.483000000    -5.388000000     5.946000000
H     5.072000000    -5.419000000     5.081000000
H     6.082000000    -4.643000000     5.900000000
O     3.421000000    -3.424000000     7.045000000
H     3.588000000    -3.080000000     6.168000000
H     3.230000000    -4.352000000     6.906000000
O     6.398000000    -2.858000000     5.173000000
H     6.869000000    -2.142000000     4.747000000
H     5.521000000    -2.829000000     4.791000000
O     1.308000000    -9.175000000     0.537000000
H     1.769000000    -8.574000000    -0.049000000
H     0.882000000    -9.801000000    -0.049000000
O     2.603000000    -8.062000000    -2.842000000
H     2.687000000    -7.656000000    -1.980000000
H     1.711000000    -8.409000000    -2.858000000
O     2.234000000    -5.478000000     3.031000000
H     3.162000000    -5.563000000     3.251000000
H     2.224000000    -4.936000000     2.242000000
O     0.760000000    -7.733000000     3.310000000
H     1.401000000    -7.056000000     3.090000000
H     0.809000000    -8.354000000     2.583000000
O     5.912000000    -7.918000000    -1.451000000
H     5.280000000    -7.202000000    -1.403000000
H     6.566000000    -7.705000000    -0.785000000
O     6.307000000    -1.221000000     1.867000000
H     5.468000000    -1.678000000     1.803000000
H     6.788000000    -1.493000000     1.085000000
O     2.793000000    -6.945000000    -0.416000000
H     2.528000000    -6.085000000    -0.089000000
H     3.366000000    -7.294000000     0.267000000
O     7.700000000    -6.784000000     0.155000000
H     8.294000000    -6.958000000    -0.576000000
H     7.736000000    -5.834000000     0.271000000
O     4.915000000    -4.950000000     3.275000000
H     4.635000000    -4.340000000     2.592000000
H     5.790000000    -5.227000000     3.003000000
O     1.670000000    -5.593000000     5.705000000
H     2.430000000    -6.173000000     5.748000000
H     1.512000000    -5.473000000     4.768000000
O     7.262000000    -0.581000000     4.133000000
H     6.851000000    -0.812000000     3.300000000
H     7.299000000     0.375000000     4.125000000
