218
-1431.43972
C    -0.710000000    -0.892000000     5.504000000
H    -1.778000000    -0.747000000     5.644000000
C     0.075000000     0.025000000     4.811000000
C     1.437000000    -0.211000000     4.712000000
H     2.040000000     0.574000000     4.262000000
C    -0.549000000     1.232000000     4.092000000
O    -1.990000000     1.237000000     4.294000000
H    -0.377000000     1.057000000     3.019000000
O     0.143000000     2.461000000     4.285000000
C     0.255000000     3.266000000     3.246000000
C     1.530000000     3.441000000     2.795000000
H     2.422000000     2.928000000     3.147000000
C     1.692000000     4.149000000     1.590000000
O     2.883000000     4.067000000     0.956000000
C     0.650000000     4.819000000     0.992000000
C     0.729000000     5.566000000    -0.267000000
H    -0.062000000     6.312000000    -0.365000000
C     0.621000000     4.604000000    -1.484000000
C    -0.600000000     4.489000000    -2.139000000
H    -1.490000000     5.008000000    -1.793000000
H     1.607000000     6.209000000    -0.169000000
C    -0.676000000     4.576000000     1.456000000
H    -1.489000000     5.075000000     0.934000000
C    -0.861000000     3.852000000     2.653000000
C    -2.319000000     3.777000000     3.120000000
H    -2.842000000     4.705000000     2.878000000
H    -2.234000000     3.689000000     4.205000000
C    -3.107000000     2.636000000     2.690000000
C    -3.864000000     2.730000000     1.571000000
H    -4.093000000     3.668000000     1.072000000
C    -2.808000000     1.352000000     3.283000000
C    -3.475000000     0.220000000     2.834000000
H    -3.353000000    -0.721000000     3.364000000
C    -4.255000000     0.301000000     1.690000000
O    -4.856000000    -0.805000000     1.162000000
C    -4.195000000    -1.461000000     0.064000000
C    -4.115000000    -2.951000000     0.203000000
C    -3.954000000    -3.811000000    -0.901000000
H    -4.141000000    -3.421000000    -1.898000000
C    -3.780000000    -3.511000000     1.532000000
H    -3.873000000    -2.815000000     2.362000000
O    -4.854000000    -1.071000000    -1.188000000
H    -3.158000000    -1.097000000     0.023000000
C    -4.370000000     1.560000000     0.995000000
C    -5.312000000     1.644000000    -0.194000000
H    -5.876000000     2.579000000    -0.212000000
H    -6.212000000     1.032000000    -0.093000000
C    -4.517000000     1.276000000    -1.421000000
C    -3.829000000     2.279000000    -2.123000000
H    -3.848000000     3.313000000    -1.787000000
C    -4.404000000    -0.029000000    -1.900000000
C    -3.516000000    -0.332000000    -2.978000000
H    -3.267000000    -1.371000000    -3.179000000
C    -2.800000000     0.687000000    -3.634000000
O    -1.779000000     0.362000000    -4.502000000
C    -0.401000000     0.525000000    -4.116000000
C     0.455000000    -0.612000000    -4.654000000
C     0.095000000    -1.912000000    -4.357000000
H    -0.769000000    -2.110000000    -3.729000000
C     1.600000000    -0.374000000    -5.382000000
H     1.931000000     0.609000000    -5.705000000
O     0.083000000     1.868000000    -4.629000000
H    -0.284000000     0.506000000    -3.022000000
C    -2.972000000     2.014000000    -3.159000000
C    -2.236000000     3.196000000    -3.756000000
H    -2.866000000     4.087000000    -3.782000000
H    -2.125000000     2.888000000    -4.797000000
C    -0.839000000     3.511000000    -3.166000000
C     0.296000000     2.835000000    -3.659000000
C     1.561000000     3.111000000    -3.205000000
H     2.376000000     2.501000000    -3.584000000
C     1.720000000     3.941000000    -2.043000000
O     2.910000000     3.942000000    -1.382000000
C     2.997000000     3.210000000    -0.134000000
H     2.137000000     2.526000000    -0.084000000
C     4.164000000     2.275000000    -0.101000000
C     4.736000000     1.830000000     1.085000000
H     4.545000000     2.212000000     2.084000000
C     4.538000000     1.708000000    -1.307000000
H     4.025000000     1.969000000    -2.229000000
C     5.630000000     0.784000000    -1.385000000
O     5.949000000     0.098000000    -2.541000000
C     6.181000000     0.344000000    -0.236000000
H     7.080000000    -0.266000000    -0.259000000
C     5.693000000     0.757000000     0.963000000
O     6.296000000     0.211000000     2.062000000
C     5.805000000     0.261000000     3.339000000
C     4.949000000    -0.706000000     3.802000000
H     4.882000000    -1.614000000     3.208000000
C     6.001000000     1.423000000     4.098000000
H     6.758000000     2.173000000     3.885000000
C     5.306000000     1.564000000     5.305000000
H     5.423000000     2.488000000     5.865000000
C     4.411000000     0.544000000     5.705000000
H     3.842000000     0.620000000     6.628000000
C     4.218000000    -0.576000000     4.972000000
O     3.369000000    -1.563000000     5.328000000
C     2.030000000    -1.304000000     5.377000000
C     1.238000000    -2.275000000     5.887000000
H     1.543000000    -3.208000000     6.353000000
C    -0.129000000    -2.059000000     5.959000000
O    -0.946000000    -3.045000000     6.460000000
C    -2.106000000    -3.442000000     5.803000000
C    -2.020000000    -4.233000000     4.693000000
H    -1.056000000    -4.309000000     4.197000000
C    -3.405000000    -3.249000000     6.371000000
H    -3.550000000    -2.712000000     7.305000000
C    -4.563000000    -3.688000000     5.803000000
H    -5.492000000    -3.495000000     6.333000000
C    -4.452000000    -4.340000000     4.588000000
H    -5.344000000    -4.701000000     4.083000000
C    -3.223000000    -4.685000000     4.051000000
O    -3.065000000    -5.377000000     2.963000000
C    -3.421000000    -4.857000000     1.721000000
C    -3.190000000    -5.628000000     0.605000000
H    -2.706000000    -6.598000000     0.680000000
C    -3.344000000    -5.099000000    -0.673000000
O    -2.915000000    -5.911000000    -1.705000000
C    -2.480000000    -5.501000000    -2.981000000
C    -1.149000000    -5.185000000    -3.142000000
H    -0.438000000    -5.265000000    -2.324000000
C    -3.370000000    -5.218000000    -3.952000000
H    -4.422000000    -5.425000000    -3.778000000
C    -2.920000000    -4.623000000    -5.135000000
H    -3.690000000    -4.408000000    -5.872000000
C    -1.551000000    -4.461000000    -5.370000000
H    -1.059000000    -4.020000000    -6.233000000
C    -0.701000000    -4.674000000    -4.341000000
O     0.629000000    -4.195000000    -4.342000000
C     0.929000000    -2.942000000    -4.803000000
C     2.099000000    -2.681000000    -5.484000000
H     2.815000000    -3.379000000    -5.909000000
C     2.427000000    -1.387000000    -5.808000000
O     3.595000000    -1.108000000    -6.416000000
C     4.418000000    -0.253000000    -5.751000000
C     4.958000000     0.856000000    -6.403000000
H     4.750000000     0.967000000    -7.465000000
C     5.725000000     1.849000000    -5.729000000
H     6.278000000     2.613000000    -6.270000000
C     6.030000000     1.558000000    -4.460000000
H     6.652000000     2.214000000    -3.857000000
C     5.563000000     0.426000000    -3.837000000
C     4.786000000    -0.523000000    -4.457000000
H     4.223000000    -1.297000000    -3.940000000
C     2.486000000    -1.147000000     0.258000000
H     3.438000000    -1.104000000     0.780000000
C     1.473000000    -0.122000000     0.488000000
H     1.578000000     0.764000000     1.109000000
C     0.248000000    -0.257000000    -0.078000000
C    -0.889000000     0.770000000     0.219000000
H    -1.449000000     0.370000000     1.067000000
H    -0.427000000     1.724000000     0.484000000
H    -1.557000000     0.943000000    -0.627000000
C    -0.039000000    -1.383000000    -0.810000000
H    -0.994000000    -1.485000000    -1.319000000
C     0.924000000    -2.394000000    -0.951000000
H     0.664000000    -3.249000000    -1.570000000
C     2.175000000    -2.366000000    -0.326000000
C     3.246000000    -3.472000000    -0.386000000
O     2.997000000    -4.538000000    -0.950000000
O     4.356000000    -3.239000000    -0.083000000
O     9.191000000    -0.517000000     2.121000000
H     9.532000000     0.090000000     2.778000000
H     8.259000000    -0.592000000     2.325000000
O     6.915000000    -3.465000000    -0.348000000
H     7.092000000    -3.795000000    -1.229000000
H     5.972000000    -3.303000000    -0.338000000
O     4.678000000    -4.587000000    -3.229000000
H     3.962000000    -5.080000000    -3.629000000
H     4.335000000    -4.316000000    -2.377000000
O     2.766000000    -6.641000000    -3.695000000
H     2.152000000    -6.538000000    -4.422000000
H     2.944000000    -7.581000000    -3.663000000
O     4.760000000    -4.327000000     2.218000000
H     4.655000000    -3.814000000     1.417000000
H     3.888000000    -4.681000000     2.392000000
O    -0.639000000    -8.561000000    -0.661000000
H    -0.250000000    -7.725000000    -0.920000000
H    -1.108000000    -8.858000000    -1.440000000
O     4.983000000    -5.457000000     5.372000000
H     5.393000000    -4.695000000     5.782000000
H     4.941000000    -5.235000000     4.442000000
O     1.429000000    -7.851000000     1.830000000
H     1.893000000    -8.616000000     2.169000000
H     1.655000000    -7.827000000     0.900000000
O     2.169000000    -5.004000000     2.747000000
H     1.901000000    -5.854000000     2.398000000
H     2.146000000    -5.117000000     3.697000000
O     8.909000000     0.008000000    -2.455000000
H     7.973000000     0.147000000    -2.315000000
H     9.057000000     0.272000000    -3.364000000
O    -0.080000000    -4.061000000     1.932000000
H    -0.055000000    -3.496000000     1.161000000
H     0.840000000    -4.194000000     2.161000000
O     9.966000000    -2.514000000     0.591000000
H     9.216000000    -3.017000000     0.275000000
H     9.582000000    -1.834000000     1.145000000
O     7.450000000    -3.795000000     2.508000000
H     6.507000000    -3.905000000     2.625000000
H     7.572000000    -3.767000000     1.559000000
O     5.998000000    -7.359000000    -2.698000000
H     5.655000000    -8.244000000    -2.574000000
H     5.770000000    -6.899000000    -1.891000000
O     1.729000000    -6.894000000    -1.074000000
H     2.232000000    -7.201000000    -1.828000000
H     2.051000000    -6.007000000    -0.916000000
O     7.717000000    -5.071000000    -3.025000000
H     6.985000000    -5.577000000    -2.674000000
H     7.314000000    -4.467000000    -3.649000000
O     4.973000000    -8.468000000     1.538000000
H     5.538000000    -8.098000000     2.215000000
H     4.839000000    -7.750000000     0.919000000
O     6.219000000    -4.073000000    -5.396000000
H     6.361000000    -4.958000000    -5.734000000
H     5.375000000    -4.121000000    -4.948000000
O     5.210000000    -6.178000000    -0.278000000
H     5.755000000    -5.551000000     0.197000000
H     4.418000000    -5.688000000    -0.499000000
