218
-1490.25612
C    -1.085000000     0.053000000     5.368000000
H    -2.151000000    -0.065000000     5.189000000
C    -0.377000000     1.007000000     4.747000000
C     1.054000000     1.038000000     4.834000000
H     1.628000000     1.767000000     4.268000000
C    -1.031000000     1.916000000     3.690000000
O    -2.438000000     2.009000000     3.776000000
H    -0.758000000     1.400000000     2.758000000
O    -0.448000000     3.225000000     3.629000000
C    -0.284000000     3.828000000     2.384000000
C     1.037000000     3.730000000     1.824000000
H     1.856000000     3.408000000     2.463000000
C     1.314000000     4.296000000     0.604000000
O     2.590000000     4.136000000     0.103000000
C     0.298000000     4.846000000    -0.220000000
C     0.497000000     5.309000000    -1.676000000
H    -0.193000000     6.045000000    -2.094000000
C     0.455000000     4.167000000    -2.629000000
C    -0.795000000     3.797000000    -3.194000000
H    -1.686000000     4.349000000    -2.904000000
H     1.470000000     5.753000000    -1.899000000
C    -1.020000000     4.845000000     0.287000000
H    -1.853000000     5.268000000    -0.268000000
C    -1.324000000     4.372000000     1.542000000
C    -2.794000000     4.339000000     1.984000000
H    -3.423000000     5.190000000     1.715000000
H    -2.844000000     4.522000000     3.060000000
C    -3.368000000     2.983000000     1.686000000
C    -4.186000000     2.764000000     0.546000000
H    -4.314000000     3.546000000    -0.197000000
C    -3.148000000     1.893000000     2.608000000
C    -3.670000000     0.680000000     2.353000000
H    -3.539000000    -0.194000000     2.986000000
C    -4.493000000     0.507000000     1.224000000
O    -4.817000000    -0.729000000     0.834000000
C    -3.903000000    -1.478000000     0.044000000
C    -3.605000000    -2.806000000     0.645000000
C    -2.939000000    -3.761000000    -0.125000000
H    -2.729000000    -3.513000000    -1.162000000
C    -3.934000000    -3.071000000     1.980000000
H    -4.433000000    -2.302000000     2.564000000
O    -4.426000000    -1.582000000    -1.347000000
H    -2.975000000    -0.891000000    -0.028000000
C    -4.698000000     1.483000000     0.274000000
C    -5.471000000     1.192000000    -1.067000000
H    -5.953000000     2.102000000    -1.430000000
H    -6.277000000     0.479000000    -0.879000000
C    -4.478000000     0.693000000    -2.138000000
C    -3.931000000     1.650000000    -2.983000000
H    -4.223000000     2.691000000    -2.872000000
C    -4.021000000    -0.613000000    -2.277000000
C    -3.113000000    -1.006000000    -3.245000000
H    -2.684000000    -2.004000000    -3.238000000
C    -2.542000000    -0.047000000    -4.052000000
O    -1.561000000    -0.497000000    -4.873000000
C    -0.126000000    -0.198000000    -4.533000000
C     0.734000000    -1.470000000    -4.891000000
C     0.264000000    -2.688000000    -4.487000000
H    -0.573000000    -2.818000000    -3.806000000
C     2.054000000    -1.366000000    -5.262000000
H     2.405000000    -0.379000000    -5.553000000
O     0.289000000     0.976000000    -5.251000000
H    -0.054000000    -0.097000000    -3.440000000
C    -2.988000000     1.258000000    -3.908000000
C    -2.229000000     2.303000000    -4.670000000
H    -2.813000000     3.225000000    -4.714000000
H    -2.195000000     2.078000000    -5.738000000
C    -0.831000000     2.711000000    -4.100000000
C     0.346000000     2.069000000    -4.501000000
C     1.538000000     2.357000000    -3.864000000
H     2.355000000     1.662000000    -4.047000000
C     1.586000000     3.382000000    -2.887000000
O     2.740000000     3.504000000    -2.128000000
C     2.717000000     2.966000000    -0.761000000
H     1.822000000     2.326000000    -0.775000000
C     3.921000000     2.100000000    -0.417000000
C     4.564000000     2.280000000     0.823000000
H     4.154000000     2.983000000     1.544000000
C     4.490000000     1.125000000    -1.280000000
H     4.104000000     1.038000000    -2.292000000
C     5.563000000     0.358000000    -0.892000000
O     6.143000000    -0.588000000    -1.760000000
C     6.099000000     0.495000000     0.381000000
H     6.938000000    -0.145000000     0.645000000
C     5.643000000     1.500000000     1.199000000
O     6.175000000     1.671000000     2.481000000
C     5.531000000     1.893000000     3.639000000
C     4.470000000     1.029000000     4.024000000
H     4.060000000     0.315000000     3.315000000
C     5.936000000     2.928000000     4.517000000
H     6.790000000     3.541000000     4.239000000
C     5.270000000     3.078000000     5.758000000
H     5.602000000     3.840000000     6.458000000
C     4.395000000     2.101000000     6.230000000
H     3.926000000     2.163000000     7.208000000
C     3.922000000     1.149000000     5.305000000
O     3.098000000     0.113000000     5.712000000
C     1.738000000     0.166000000     5.623000000
C     0.964000000    -0.781000000     6.334000000
H     1.514000000    -1.525000000     6.906000000
C    -0.422000000    -0.850000000     6.221000000
O    -1.152000000    -1.905000000     6.782000000
C    -2.425000000    -2.423000000     6.434000000
C    -2.551000000    -3.213000000     5.249000000
H    -1.624000000    -3.461000000     4.738000000
C    -3.547000000    -2.124000000     7.216000000
H    -3.502000000    -1.548000000     8.137000000
C    -4.808000000    -2.608000000     6.797000000
H    -5.691000000    -2.338000000     7.370000000
C    -4.911000000    -3.459000000     5.704000000
H    -5.847000000    -3.948000000     5.446000000
C    -3.789000000    -3.707000000     4.938000000
O    -3.952000000    -4.610000000     3.899000000
C    -3.608000000    -4.316000000     2.543000000
C    -2.995000000    -5.266000000     1.780000000
H    -2.716000000    -6.216000000     2.229000000
C    -2.682000000    -4.991000000     0.443000000
O    -2.189000000    -6.108000000    -0.277000000
C    -1.860000000    -5.943000000    -1.611000000
C    -0.562000000    -5.491000000    -2.069000000
H     0.284000000    -5.396000000    -1.393000000
C    -2.857000000    -6.141000000    -2.538000000
H    -3.885000000    -6.407000000    -2.302000000
C    -2.670000000    -5.742000000    -3.840000000
H    -3.493000000    -5.737000000    -4.550000000
C    -1.441000000    -5.391000000    -4.341000000
H    -1.259000000    -5.155000000    -5.386000000
C    -0.435000000    -5.323000000    -3.422000000
O     0.806000000    -5.016000000    -3.838000000
C     1.079000000    -3.855000000    -4.555000000
C     2.381000000    -3.725000000    -5.029000000
H     3.150000000    -4.493000000    -5.019000000
C     2.887000000    -2.486000000    -5.335000000
O     4.152000000    -2.296000000    -5.777000000
C     4.940000000    -1.362000000    -5.129000000
C     6.029000000    -0.783000000    -5.835000000
H     6.181000000    -0.987000000    -6.892000000
C     6.962000000    -0.017000000    -5.192000000
H     7.623000000     0.482000000    -5.896000000
C     6.924000000     0.173000000    -3.838000000
H     7.750000000     0.739000000    -3.414000000
C     6.009000000    -0.584000000    -3.112000000
C     5.035000000    -1.309000000    -3.735000000
H     4.399000000    -1.987000000    -3.171000000
C     1.956000000    -0.471000000     0.833000000
H     2.637000000    -0.177000000     1.628000000
C     0.890000000     0.358000000     0.541000000
H     0.674000000     1.219000000     1.169000000
C     0.112000000     0.098000000    -0.538000000
C    -1.064000000     0.999000000    -0.729000000
H    -1.736000000     0.573000000    -1.478000000
H    -1.651000000     0.979000000     0.192000000
H    -0.775000000     2.031000000    -0.938000000
C     0.346000000    -1.078000000    -1.247000000
H    -0.405000000    -1.289000000    -2.004000000
C     1.426000000    -1.883000000    -1.038000000
H     1.620000000    -2.699000000    -1.730000000
C     2.248000000    -1.599000000     0.063000000
C     3.495000000    -2.468000000     0.242000000
O     4.134000000    -2.956000000    -0.695000000
O     3.864000000    -2.552000000     1.426000000
O     2.614000000    -5.798000000     3.455000000
H     2.504000000    -4.847000000     3.477000000
H     3.509000000    -5.929000000     3.142000000
O     2.116000000    -3.085000000     3.554000000
H     1.206000000    -3.053000000     3.261000000
H     2.626000000    -2.837000000     2.783000000
O     9.167000000    -3.718000000    -2.722000000
H     9.052000000    -3.761000000    -1.773000000
H     8.438000000    -4.230000000    -3.074000000
O     4.634000000    -5.124000000    -2.020000000
H     5.586000000    -5.032000000    -1.986000000
H     4.301000000    -4.326000000    -1.610000000
O     6.047000000    -5.928000000     4.881000000
H     6.377000000    -5.050000000     4.690000000
H     6.528000000    -6.500000000     4.284000000
O     4.288000000    -7.762000000     0.762000000
H     4.346000000    -6.858000000     1.072000000
H     4.019000000    -8.263000000     1.532000000
O     6.140000000    -1.983000000     3.278000000
H     5.394000000    -2.199000000     2.719000000
H     6.892000000    -2.380000000     2.837000000
O     5.419000000    -8.740000000    -1.393000000
H     4.878000000    -8.471000000    -0.651000000
H     5.153000000    -9.642000000    -1.569000000
O    -0.219000000    -3.450000000     2.042000000
H    -0.584000000    -4.334000000     2.073000000
H    -0.183000000    -3.238000000     1.109000000
O     6.825000000    -3.045000000    -0.754000000
H     6.746000000    -2.276000000    -1.319000000
H     5.949000000    -3.163000000    -0.387000000
O     7.479000000    -5.264000000     0.418000000
H     7.441000000    -5.927000000    -0.271000000
H     7.364000000    -4.433000000    -0.043000000
O    10.111000000    -0.858000000     1.733000000
H     9.520000000    -1.611000000     1.754000000
H     9.842000000    -0.322000000     2.479000000
O     2.514000000    -6.841000000    -1.182000000
H     3.218000000    -6.283000000    -1.513000000
H     2.821000000    -7.129000000    -0.322000000
O     7.137000000    -5.312000000    -3.789000000
H     6.612000000    -4.900000000    -4.475000000
H     7.700000000    -5.929000000    -4.256000000
O     4.426000000    -3.039000000     5.303000000
H     3.595000000    -2.978000000     4.831000000
H     5.073000000    -2.677000000     4.697000000
O     4.633000000    -5.121000000     1.656000000
H     4.339000000    -4.269000000     1.334000000
H     5.577000000    -5.126000000     1.494000000
O     0.050000000    -6.581000000     2.718000000
H    -0.215000000    -6.622000000     3.637000000
H     0.954000000    -6.268000000     2.743000000
O     8.442000000    -3.180000000     2.421000000
H     7.992000000    -3.841000000     1.894000000
H     8.795000000    -3.667000000     3.165000000
O     7.057000000    -0.209000000     5.317000000
H     6.262000000     0.301000000     5.472000000
H     6.867000000    -0.717000000     4.529000000
