218
-1450.80719
C    -2.615000000    -0.714000000    -4.696000000
H    -2.329000000     0.331000000    -4.774000000
C    -3.449000000    -1.134000000    -3.718000000
C    -3.824000000    -2.505000000    -3.548000000
H    -4.402000000    -2.845000000    -2.693000000
C    -3.931000000    -0.107000000    -2.647000000
O    -4.152000000     1.249000000    -3.062000000
H    -3.119000000    -0.172000000    -1.908000000
O    -5.125000000    -0.578000000    -1.882000000
C    -5.009000000    -0.641000000    -0.484000000
C    -4.317000000    -1.721000000     0.083000000
H    -4.078000000    -2.570000000    -0.553000000
C    -3.987000000    -1.657000000     1.436000000
O    -3.208000000    -2.715000000     1.967000000
C    -4.292000000    -0.546000000     2.214000000
C    -3.995000000    -0.563000000     3.710000000
H    -4.751000000     0.055000000     4.199000000
C    -2.544000000    -0.074000000     4.048000000
C    -2.246000000     1.319000000     4.290000000
H    -3.026000000     2.075000000     4.340000000
H    -4.136000000    -1.582000000     4.075000000
C    -4.902000000     0.552000000     1.603000000
H    -4.994000000     1.468000000     2.182000000
C    -5.177000000     0.502000000     0.249000000
C    -5.562000000     1.842000000    -0.474000000
H    -6.194000000     2.434000000     0.192000000
H    -6.246000000     1.541000000    -1.270000000
C    -4.281000000     2.585000000    -1.012000000
C    -3.667000000     3.517000000    -0.226000000
H    -4.107000000     3.771000000     0.735000000
C    -3.748000000     2.339000000    -2.315000000
C    -2.595000000     2.927000000    -2.687000000
H    -2.201000000     2.819000000    -3.694000000
C    -1.916000000     3.838000000    -1.876000000
O    -0.578000000     4.285000000    -2.174000000
C     0.531000000     3.862000000    -1.340000000
C     1.634000000     3.315000000    -2.228000000
C     2.936000000     3.062000000    -1.673000000
H     3.119000000     3.305000000    -0.629000000
C     1.377000000     2.918000000    -3.542000000
H     0.418000000     3.082000000    -4.028000000
O     0.898000000     4.969000000    -0.458000000
H     0.269000000     2.995000000    -0.717000000
C    -2.538000000     4.213000000    -0.670000000
C    -1.988000000     5.273000000     0.284000000
H    -2.829000000     5.681000000     0.850000000
H    -1.662000000     6.136000000    -0.301000000
C    -0.876000000     4.762000000     1.218000000
C    -1.170000000     4.367000000     2.511000000
H    -2.175000000     4.560000000     2.876000000
C     0.505000000     4.730000000     0.826000000
C     1.500000000     4.270000000     1.697000000
H     2.516000000     4.175000000     1.324000000
C     1.125000000     3.806000000     2.942000000
O     2.112000000     3.132000000     3.768000000
C     2.158000000     1.698000000     3.758000000
C     3.561000000     1.077000000     3.582000000
C     4.545000000     1.877000000     3.140000000
H     4.378000000     2.931000000     2.937000000
C     3.807000000    -0.282000000     3.694000000
H     2.955000000    -0.910000000     3.942000000
O     1.396000000     1.130000000     4.764000000
H     1.579000000     1.457000000     2.855000000
C    -0.225000000     3.851000000     3.360000000
C    -0.657000000     3.211000000     4.674000000
H    -1.567000000     3.702000000     5.024000000
H     0.112000000     3.394000000     5.428000000
C    -0.966000000     1.748000000     4.541000000
C     0.102000000     0.814000000     4.474000000
C    -0.172000000    -0.532000000     4.261000000
H     0.637000000    -1.256000000     4.209000000
C    -1.463000000    -0.926000000     3.966000000
O    -1.587000000    -2.273000000     3.526000000
C    -1.795000000    -2.552000000     2.099000000
H    -1.455000000    -1.666000000     1.544000000
C    -0.837000000    -3.758000000     1.667000000
C    -0.991000000    -4.214000000     0.414000000
H    -1.734000000    -3.725000000    -0.211000000
C     0.195000000    -4.172000000     2.494000000
H     0.339000000    -3.614000000     3.415000000
C     1.011000000    -5.228000000     2.119000000
O     2.033000000    -5.683000000     2.929000000
C     0.655000000    -5.878000000     0.923000000
H     1.109000000    -6.835000000     0.678000000
C    -0.276000000    -5.322000000     0.016000000
O    -0.298000000    -5.754000000    -1.255000000
C    -1.481000000    -6.028000000    -1.859000000
C    -1.952000000    -5.136000000    -2.851000000
H    -1.405000000    -4.205000000    -2.979000000
C    -1.932000000    -7.320000000    -1.756000000
H    -1.440000000    -7.962000000    -1.030000000
C    -3.123000000    -7.742000000    -2.424000000
H    -3.560000000    -8.725000000    -2.266000000
C    -3.680000000    -6.822000000    -3.361000000
H    -4.468000000    -7.123000000    -4.048000000
C    -3.092000000    -5.563000000    -3.602000000
O    -3.703000000    -4.717000000    -4.509000000
C    -3.417000000    -3.358000000    -4.578000000
C    -2.759000000    -2.897000000    -5.657000000
H    -2.521000000    -3.590000000    -6.459000000
C    -2.289000000    -1.607000000    -5.670000000
O    -1.532000000    -1.240000000    -6.718000000
C    -0.879000000    -0.001000000    -6.831000000
C     0.381000000     0.189000000    -6.284000000
H     0.850000000    -0.674000000    -5.818000000
C    -1.538000000     1.030000000    -7.399000000
H    -2.415000000     0.916000000    -8.031000000
C    -1.083000000     2.336000000    -7.327000000
H    -1.773000000     3.094000000    -7.690000000
C     0.189000000     2.587000000    -6.709000000
H     0.635000000     3.578000000    -6.688000000
C     0.923000000     1.479000000    -6.243000000
O     2.129000000     1.736000000    -5.556000000
C     2.365000000     2.278000000    -4.300000000
C     3.674000000     2.140000000    -3.725000000
H     4.445000000     1.605000000    -4.272000000
C     3.875000000     2.454000000    -2.410000000
O     5.046000000     2.069000000    -1.844000000
C     5.650000000     2.736000000    -0.809000000
C     5.985000000     2.045000000     0.352000000
H     5.734000000     0.998000000     0.504000000
C     6.056000000     4.115000000    -0.932000000
H     5.735000000     4.660000000    -1.816000000
C     6.679000000     4.796000000     0.059000000
H     7.014000000     5.807000000    -0.156000000
C     7.135000000     4.024000000     1.124000000
H     7.690000000     4.475000000     1.942000000
C     6.708000000     2.721000000     1.356000000
O     6.899000000     2.121000000     2.614000000
C     5.889000000     1.386000000     3.119000000
C     6.084000000    -0.010000000     3.266000000
H     7.102000000    -0.388000000     3.202000000
C     5.040000000    -0.860000000     3.514000000
O     5.269000000    -2.240000000     3.539000000
C     4.419000000    -3.169000000     4.087000000
C     4.585000000    -3.649000000     5.413000000
H     5.407000000    -3.292000000     6.028000000
C     3.853000000    -4.649000000     5.946000000
H     4.052000000    -4.983000000     6.960000000
C     2.870000000    -5.241000000     5.235000000
H     2.433000000    -6.125000000     5.692000000
C     2.767000000    -4.901000000     3.839000000
C     3.505000000    -3.826000000     3.257000000
H     3.482000000    -3.558000000     2.204000000
C     0.790000000    -0.486000000    -2.029000000
H     0.792000000    -0.524000000    -3.115000000
C    -0.076000000     0.345000000    -1.332000000
H    -0.748000000     1.013000000    -1.865000000
C    -0.134000000     0.252000000     0.012000000
C    -1.102000000     1.020000000     0.802000000
H    -2.124000000     0.804000000     0.484000000
H    -1.002000000     0.796000000     1.867000000
H    -0.949000000     2.101000000     0.800000000
C     0.713000000    -0.653000000     0.689000000
H     0.728000000    -0.773000000     1.769000000
C     1.546000000    -1.448000000    -0.016000000
H     2.153000000    -2.188000000     0.499000000
C     1.583000000    -1.383000000    -1.415000000
C     2.491000000    -2.213000000    -2.251000000
O     3.378000000    -2.836000000    -1.708000000
O     2.312000000    -2.226000000    -3.485000000
O     3.862000000    -0.774000000    -5.016000000
H     3.431000000    -1.224000000    -4.289000000
H     3.229000000    -0.113000000    -5.297000000
O     5.274000000    -1.109000000    -1.405000000
H     4.681000000    -0.874000000    -0.691000000
H     4.855000000    -1.859000000    -1.828000000
O     5.402000000     1.151000000    -6.855000000
H     6.332000000     0.964000000    -6.730000000
H     4.963000000     0.322000000    -6.665000000
O     6.404000000    -0.240000000    -3.754000000
H     6.373000000    -0.454000000    -2.822000000
H     5.620000000    -0.650000000    -4.120000000
O     8.076000000    -3.343000000    -4.479000000
H     8.996000000    -3.113000000    -4.353000000
H     7.804000000    -2.833000000    -5.243000000
O     6.468000000    -6.173000000     1.222000000
H     5.892000000    -6.001000000     0.477000000
H     6.755000000    -7.078000000     1.099000000
O     1.739000000    -2.493000000    -8.556000000
H     2.691000000    -2.401000000    -8.599000000
H     1.568000000    -2.788000000    -7.661000000
O     0.948000000    -7.369000000    -3.801000000
H     0.517000000    -7.038000000    -4.589000000
H     1.074000000    -8.303000000    -3.972000000
O     5.307000000    -4.759000000    -1.262000000
H     4.566000000    -5.363000000    -1.303000000
H     4.918000000    -3.918000000    -1.022000000
O     7.343000000    -5.771000000    -5.037000000
H     8.050000000    -6.322000000    -4.701000000
H     7.572000000    -4.886000000    -4.751000000
O     3.873000000    -7.155000000    -4.127000000
H     3.555000000    -6.742000000    -3.324000000
H     3.511000000    -6.620000000    -4.832000000
O     7.984000000    -3.995000000    -1.921000000
H     7.852000000    -3.941000000    -2.868000000
H     7.158000000    -4.343000000    -1.584000000
O     2.582000000    -5.290000000    -6.982000000
H     2.602000000    -5.000000000    -7.894000000
H     2.690000000    -4.487000000    -6.472000000
O     1.977000000    -2.963000000    -5.979000000
H     1.822000000    -3.204000000    -5.066000000
H     2.637000000    -2.272000000    -5.937000000
O     6.427000000    -7.435000000    -2.488000000
H     6.192000000    -8.346000000    -2.666000000
H     5.763000000    -6.922000000    -2.948000000
O     2.461000000    -5.745000000    -1.552000000
H     1.641000000    -6.012000000    -1.967000000
H     2.366000000    -4.802000000    -1.418000000
O     4.445000000    -2.899000000    -8.500000000
H     4.936000000    -3.418000000    -7.861000000
H     5.020000000    -2.854000000    -9.264000000
O     5.719000000    -3.981000000    -6.499000000
H     6.143000000    -4.789000000    -6.211000000
H     5.195000000    -3.703000000    -5.748000000
O     4.220000000    -3.781000000    -4.305000000
H     3.681000000    -3.138000000    -3.844000000
H     4.791000000    -4.144000000    -3.629000000
