218
-1468.29624
C    -0.150000000     0.173000000     5.113000000
H    -0.835000000    -0.607000000     4.790000000
C    -0.434000000     1.474000000     4.705000000
C     0.433000000     2.492000000     5.038000000
H     0.261000000     3.458000000     4.571000000
C    -1.545000000     1.824000000     3.730000000
O    -2.836000000     1.147000000     4.118000000
H    -1.265000000     1.571000000     2.697000000
O    -1.795000000     3.224000000     3.716000000
C    -1.924000000     3.730000000     2.451000000
C    -0.782000000     4.301000000     1.812000000
H     0.226000000     4.332000000     2.217000000
C    -0.854000000     4.555000000     0.416000000
O     0.357000000     4.829000000    -0.188000000
C    -2.109000000     4.362000000    -0.262000000
C    -2.127000000     4.775000000    -1.750000000
H    -3.168000000     5.003000000    -1.991000000
C    -1.769000000     3.644000000    -2.683000000
C    -2.718000000     2.710000000    -3.134000000
H    -3.794000000     2.787000000    -3.005000000
H    -1.464000000     5.617000000    -1.963000000
C    -3.197000000     3.784000000     0.327000000
H    -4.040000000     3.600000000    -0.334000000
C    -3.087000000     3.510000000     1.703000000
C    -4.376000000     2.840000000     2.301000000
H    -5.267000000     3.153000000     1.752000000
H    -4.484000000     3.162000000     3.339000000
C    -4.351000000     1.340000000     2.201000000
C    -4.923000000     0.705000000     1.122000000
H    -5.488000000     1.305000000     0.413000000
C    -3.592000000     0.578000000     3.087000000
C    -3.542000000    -0.798000000     3.008000000
H    -3.012000000    -1.353000000     3.778000000
C    -4.187000000    -1.449000000     1.853000000
O    -3.834000000    -2.792000000     1.600000000
C    -2.897000000    -2.980000000     0.531000000
C    -1.778000000    -3.971000000     0.892000000
C    -1.501000000    -5.003000000    -0.001000000
H    -1.985000000    -5.109000000    -0.968000000
C    -1.157000000    -3.906000000     2.130000000
H    -1.375000000    -3.096000000     2.821000000
O    -3.643000000    -3.341000000    -0.694000000
H    -2.429000000    -1.989000000     0.439000000
C    -4.779000000    -0.616000000     0.798000000
C    -5.447000000    -1.254000000    -0.474000000
H    -6.411000000    -0.754000000    -0.584000000
H    -5.703000000    -2.277000000    -0.190000000
C    -4.499000000    -1.357000000    -1.653000000
C    -4.548000000    -0.431000000    -2.749000000
H    -5.189000000     0.428000000    -2.567000000
C    -3.663000000    -2.469000000    -1.727000000
C    -2.757000000    -2.646000000    -2.787000000
H    -2.032000000    -3.444000000    -2.647000000
C    -2.771000000    -1.681000000    -3.821000000
O    -1.597000000    -1.630000000    -4.572000000
C    -0.463000000    -0.863000000    -4.087000000
C     0.801000000    -1.607000000    -4.231000000
C     0.809000000    -2.976000000    -4.264000000
H    -0.163000000    -3.459000000    -4.324000000
C     2.005000000    -0.916000000    -3.934000000
H     2.033000000     0.164000000    -3.807000000
O    -0.378000000     0.356000000    -4.781000000
H    -0.492000000    -0.620000000    -3.014000000
C    -3.553000000    -0.476000000    -3.687000000
C    -3.316000000     0.784000000    -4.588000000
H    -4.291000000     1.258000000    -4.718000000
H    -2.968000000     0.328000000    -5.517000000
C    -2.289000000     1.727000000    -3.987000000
C    -0.873000000     1.504000000    -4.214000000
C     0.057000000     2.371000000    -3.709000000
H     1.105000000     2.164000000    -3.911000000
C    -0.419000000     3.408000000    -2.994000000
O     0.523000000     4.195000000    -2.442000000
C     0.973000000     3.853000000    -1.107000000
H     0.656000000     2.862000000    -0.748000000
C     2.484000000     3.806000000    -0.931000000
C     2.999000000     3.828000000     0.349000000
H     2.378000000     4.053000000     1.213000000
C     3.346000000     3.554000000    -1.999000000
H     3.066000000     3.387000000    -3.036000000
C     4.715000000     3.562000000    -1.735000000
O     5.534000000     3.311000000    -2.861000000
C     5.236000000     3.458000000    -0.445000000
H     6.305000000     3.496000000    -0.251000000
C     4.353000000     3.600000000     0.645000000
O     4.890000000     3.568000000     1.935000000
C     4.324000000     4.211000000     2.977000000
C     3.478000000     3.432000000     3.845000000
H     3.387000000     2.350000000     3.806000000
C     4.448000000     5.542000000     3.257000000
H     5.097000000     6.149000000     2.632000000
C     3.854000000     6.114000000     4.401000000
H     4.006000000     7.179000000     4.558000000
C     3.068000000     5.345000000     5.264000000
H     2.733000000     5.667000000     6.246000000
C     3.036000000     3.975000000     5.043000000
O     2.517000000     3.142000000     6.044000000
C     1.597000000     2.193000000     5.840000000
C     1.865000000     0.910000000     6.282000000
H     2.782000000     0.763000000     6.848000000
C     0.975000000    -0.114000000     5.941000000
O     1.175000000    -1.261000000     6.597000000
C     0.543000000    -2.372000000     6.206000000
C     0.863000000    -2.990000000     4.981000000
H     1.462000000    -2.491000000     4.224000000
C    -0.309000000    -2.957000000     7.105000000
H    -0.586000000    -2.448000000     8.024000000
C    -0.886000000    -4.166000000     6.775000000
H    -1.586000000    -4.643000000     7.458000000
C    -0.571000000    -4.800000000     5.589000000
H    -1.021000000    -5.756000000     5.335000000
C     0.335000000    -4.202000000     4.668000000
O     0.686000000    -4.815000000     3.497000000
C    -0.074000000    -4.792000000     2.365000000
C     0.219000000    -5.788000000     1.429000000
H     0.768000000    -6.666000000     1.761000000
C    -0.429000000    -5.829000000     0.239000000
O    -0.251000000    -6.960000000    -0.502000000
C    -0.093000000    -6.836000000    -1.853000000
C     0.865000000    -5.924000000    -2.431000000
H     1.539000000    -5.381000000    -1.773000000
C    -1.054000000    -7.505000000    -2.667000000
H    -1.733000000    -8.279000000    -2.317000000
C    -0.855000000    -7.346000000    -4.057000000
H    -1.476000000    -7.907000000    -4.751000000
C     0.081000000    -6.508000000    -4.588000000
H     0.334000000    -6.455000000    -5.644000000
C     0.938000000    -5.756000000    -3.782000000
O     1.985000000    -5.040000000    -4.269000000
C     1.992000000    -3.672000000    -4.158000000
C     3.229000000    -3.042000000    -4.043000000
H     4.149000000    -3.599000000    -3.883000000
C     3.213000000    -1.656000000    -3.823000000
O     4.507000000    -1.130000000    -3.565000000
C     4.807000000     0.016000000    -4.142000000
C     4.905000000     0.191000000    -5.489000000
H     4.754000000    -0.640000000    -6.173000000
C     5.302000000     1.459000000    -6.014000000
H     5.352000000     1.687000000    -7.076000000
C     5.514000000     2.523000000    -5.134000000
H     5.815000000     3.503000000    -5.497000000
C     5.352000000     2.322000000    -3.758000000
C     4.999000000     1.065000000    -3.235000000
H     4.843000000     0.913000000    -2.170000000
C     1.796000000    -0.301000000     1.923000000
H     2.048000000    -0.672000000     2.913000000
C     0.449000000    -0.265000000     1.592000000
H    -0.314000000    -0.586000000     2.297000000
C     0.019000000     0.288000000     0.356000000
C    -1.445000000     0.311000000    -0.099000000
H    -2.143000000     0.011000000     0.685000000
H    -1.756000000     1.156000000    -0.717000000
H    -1.447000000    -0.460000000    -0.871000000
C     0.997000000     0.528000000    -0.596000000
H     0.614000000     0.914000000    -1.537000000
C     2.331000000     0.366000000    -0.374000000
H     3.064000000     0.492000000    -1.166000000
C     2.719000000    -0.041000000     0.874000000
C     4.173000000    -0.068000000     1.196000000
O     5.051000000    -0.004000000     0.316000000
O     4.535000000    -0.274000000     2.329000000
O     9.106000000    -2.233000000    -0.552000000
H     8.550000000    -1.822000000     0.110000000
H     8.912000000    -1.757000000    -1.359000000
O     4.334000000    -1.984000000     4.348000000
H     4.211000000    -2.703000000     3.728000000
H     4.393000000    -1.202000000     3.799000000
O     6.119000000    -4.296000000    -2.248000000
H     6.165000000    -3.742000000    -3.027000000
H     5.995000000    -3.681000000    -1.524000000
O     5.626000000    -2.566000000    -0.227000000
H     5.408000000    -1.736000000     0.196000000
H     6.051000000    -3.081000000     0.459000000
O     6.229000000     1.200000000     3.912000000
H     5.835000000     0.549000000     3.332000000
H     5.736000000     2.002000000     3.742000000
O     8.899000000     3.443000000    -0.396000000
H     9.578000000     3.212000000     0.238000000
H     8.255000000     2.739000000    -0.324000000
O     6.947000000    -3.707000000     2.037000000
H     7.211000000    -2.792000000     2.136000000
H     7.770000000    -4.195000000     2.036000000
O     6.661000000     1.393000000     6.611000000
H     6.460000000     1.236000000     5.688000000
H     7.388000000     2.016000000     6.595000000
O     4.148000000    -4.131000000     2.471000000
H     3.745000000    -4.031000000     1.608000000
H     5.089000000    -4.112000000     2.300000000
O     7.518000000    -1.029000000    -2.524000000
H     6.892000000    -1.561000000    -3.016000000
H     8.003000000    -0.548000000    -3.194000000
O     3.311000000    -4.070000000    -0.198000000
H     2.486000000    -3.644000000    -0.429000000
H     3.984000000    -3.526000000    -0.608000000
O    10.214000000     0.428000000     4.209000000
H     9.611000000    -0.148000000     3.738000000
H    10.962000000    -0.131000000     4.421000000
O     7.283000000    -1.013000000     1.845000000
H     7.699000000    -0.353000000     1.291000000
H     6.424000000    -0.644000000     2.054000000
O     3.872000000    -1.630000000     7.153000000
H     4.157000000    -1.676000000     6.241000000
H     2.917000000    -1.673000000     7.108000000
O     7.372000000    -3.012000000     5.463000000
H     6.723000000    -2.759000000     4.806000000
H     7.120000000    -3.899000000     5.719000000
O     3.230000000    -5.449000000     4.940000000
H     3.200000000    -5.089000000     4.053000000
H     2.574000000    -6.146000000     4.938000000
O     7.598000000     0.769000000    -0.252000000
H     7.621000000     0.332000000    -1.103000000
H     6.695000000     0.663000000     0.048000000
O     1.260000000    -2.456000000    -0.735000000
H     1.469000000    -1.643000000    -0.275000000
H     0.582000000    -2.208000000    -1.364000000
O     7.171000000    -5.940000000    -0.216000000
H     6.798000000    -5.412000000    -0.922000000
H     6.936000000    -5.470000000     0.584000000
