218
-1499.19171
C    -0.292000000     1.124000000     5.031000000
H    -1.127000000     0.524000000     5.384000000
C    -0.437000000     1.954000000     3.951000000
C     0.731000000     2.636000000     3.511000000
H     0.599000000     3.175000000     2.576000000
C    -1.686000000     2.046000000     3.142000000
O    -2.834000000     1.488000000     3.815000000
H    -1.551000000     1.476000000     2.211000000
O    -1.903000000     3.429000000     2.759000000
C    -2.343000000     3.519000000     1.451000000
C    -1.560000000     4.314000000     0.600000000
H    -0.737000000     4.934000000     0.944000000
C    -1.818000000     4.443000000    -0.770000000
O    -0.890000000     4.888000000    -1.649000000
C    -2.997000000     3.863000000    -1.225000000
C    -3.213000000     3.639000000    -2.693000000
H    -4.277000000     3.531000000    -2.915000000
C    -2.484000000     2.462000000    -3.339000000
C    -3.225000000     1.268000000    -3.489000000
H    -4.243000000     1.315000000    -3.110000000
H    -2.919000000     4.561000000    -3.198000000
C    -3.886000000     3.237000000    -0.324000000
H    -4.738000000     2.700000000    -0.733000000
C    -3.597000000     3.057000000     1.009000000
C    -4.645000000     2.418000000     1.841000000
H    -5.670000000     2.536000000     1.484000000
H    -4.805000000     2.976000000     2.766000000
C    -4.371000000     0.934000000     2.102000000
C    -4.792000000    -0.031000000     1.153000000
H    -5.367000000     0.384000000     0.329000000
C    -3.513000000     0.541000000     3.119000000
C    -3.134000000    -0.787000000     3.247000000
H    -2.414000000    -1.078000000     4.007000000
C    -3.717000000    -1.766000000     2.420000000
O    -3.180000000    -3.047000000     2.453000000
C    -2.103000000    -3.438000000     1.569000000
C    -0.952000000    -4.044000000     2.288000000
C     0.123000000    -4.625000000     1.558000000
H     0.189000000    -4.645000000     0.473000000
C    -0.835000000    -3.899000000     3.718000000
H    -1.590000000    -3.343000000     4.268000000
O    -2.717000000    -4.194000000     0.542000000
H    -1.677000000    -2.513000000     1.154000000
C    -4.515000000    -1.394000000     1.315000000
C    -5.035000000    -2.414000000     0.331000000
H    -5.949000000    -2.002000000    -0.101000000
H    -5.272000000    -3.352000000     0.837000000
C    -3.981000000    -2.600000000    -0.824000000
C    -4.256000000    -1.930000000    -2.023000000
H    -5.177000000    -1.353000000    -2.048000000
C    -2.858000000    -3.453000000    -0.681000000
C    -1.972000000    -3.604000000    -1.747000000
H    -1.046000000    -4.174000000    -1.756000000
C    -2.199000000    -2.877000000    -2.896000000
O    -1.196000000    -3.017000000    -3.848000000
C    -0.289000000    -1.911000000    -3.819000000
C     1.171000000    -2.305000000    -3.885000000
C     1.477000000    -3.633000000    -3.518000000
H     0.704000000    -4.365000000    -3.295000000
C     2.209000000    -1.432000000    -4.223000000
H     1.946000000    -0.388000000    -4.370000000
O    -0.590000000    -0.982000000    -4.866000000
H    -0.451000000    -1.356000000    -2.883000000
C    -3.330000000    -2.023000000    -3.083000000
C    -3.437000000    -1.112000000    -4.295000000
H    -4.452000000    -0.872000000    -4.616000000
H    -3.009000000    -1.656000000    -5.140000000
C    -2.624000000     0.128000000    -4.085000000
C    -1.280000000     0.194000000    -4.446000000
C    -0.533000000     1.352000000    -4.224000000
H     0.511000000     1.417000000    -4.519000000
C    -1.138000000     2.507000000    -3.739000000
O    -0.441000000     3.670000000    -3.617000000
C     0.048000000     3.924000000    -2.272000000
H     0.062000000     2.975000000    -1.715000000
C     1.488000000     4.352000000    -2.337000000
C     2.019000000     4.981000000    -1.245000000
H     1.303000000     5.184000000    -0.453000000
C     2.354000000     3.943000000    -3.293000000
H     1.937000000     3.452000000    -4.169000000
C     3.728000000     4.150000000    -3.219000000
O     4.638000000     3.814000000    -4.177000000
C     4.245000000     4.755000000    -2.102000000
H     5.313000000     4.951000000    -2.042000000
C     3.396000000     5.262000000    -1.177000000
O     4.044000000     5.883000000    -0.094000000
C     3.598000000     5.824000000     1.214000000
C     3.508000000     4.581000000     1.787000000
H     3.826000000     3.672000000     1.283000000
C     3.218000000     6.996000000     1.960000000
H     3.230000000     7.977000000     1.492000000
C     2.812000000     6.860000000     3.338000000
H     2.615000000     7.768000000     3.902000000
C     2.687000000     5.594000000     3.901000000
H     2.356000000     5.401000000     4.918000000
C     3.082000000     4.482000000     3.148000000
O     3.096000000     3.225000000     3.768000000
C     1.903000000     2.652000000     4.256000000
C     2.044000000     1.780000000     5.328000000
H     2.973000000     1.740000000     5.892000000
C     0.936000000     1.022000000     5.704000000
O     1.088000000     0.217000000     6.774000000
C     0.284000000    -0.836000000     6.976000000
C     0.564000000    -1.930000000     6.140000000
H     1.346000000    -1.937000000     5.385000000
C    -0.563000000    -0.955000000     8.077000000
H    -0.765000000    -0.116000000     8.738000000
C    -1.293000000    -2.163000000     8.211000000
H    -2.028000000    -2.246000000     9.007000000
C    -0.999000000    -3.340000000     7.488000000
H    -1.432000000    -4.321000000     7.661000000
C    -0.106000000    -3.149000000     6.411000000
O     0.333000000    -4.288000000     5.725000000
C     0.235000000    -4.467000000     4.384000000
C     1.155000000    -5.246000000     3.687000000
H     1.836000000    -5.909000000     4.214000000
C     1.165000000    -5.276000000     2.276000000
O     2.202000000    -5.939000000     1.635000000
C     2.055000000    -6.312000000     0.277000000
C     2.727000000    -5.662000000    -0.749000000
H     3.434000000    -4.856000000    -0.571000000
C     1.130000000    -7.314000000    -0.108000000
H     0.576000000    -7.823000000     0.677000000
C     0.884000000    -7.599000000    -1.386000000
H     0.297000000    -8.481000000    -1.627000000
C     1.527000000    -6.911000000    -2.401000000
H     1.196000000    -7.186000000    -3.399000000
C     2.466000000    -5.976000000    -2.072000000
O     3.085000000    -5.346000000    -3.112000000
C     2.830000000    -4.094000000    -3.502000000
C     3.819000000    -3.185000000    -3.915000000
H     4.850000000    -3.518000000    -3.829000000
C     3.542000000    -1.856000000    -4.256000000
O     4.614000000    -0.986000000    -4.462000000
C     4.594000000     0.233000000    -5.051000000
C     4.444000000     0.314000000    -6.411000000
H     4.303000000    -0.630000000    -6.933000000
C     4.279000000     1.501000000    -7.081000000
H     4.117000000     1.476000000    -8.155000000
C     4.520000000     2.714000000    -6.347000000
H     4.696000000     3.667000000    -6.839000000
C     4.569000000     2.675000000    -4.919000000
C     4.714000000     1.419000000    -4.301000000
H     4.846000000     1.374000000    -3.223000000
C     2.245000000     0.104000000     1.250000000
H     2.666000000    -0.080000000     2.235000000
C     0.893000000     0.070000000     1.047000000
H     0.165000000    -0.125000000     1.831000000
C     0.415000000     0.136000000    -0.226000000
C    -1.034000000     0.122000000    -0.472000000
H    -1.406000000    -0.888000000    -0.656000000
H    -1.557000000     0.472000000     0.420000000
H    -1.390000000     0.688000000    -1.336000000
C     1.282000000     0.311000000    -1.324000000
H     0.910000000     0.464000000    -2.333000000
C     2.606000000     0.419000000    -1.111000000
H     3.308000000     0.507000000    -1.937000000
C     3.131000000     0.285000000     0.171000000
C     4.670000000     0.371000000     0.467000000
O     5.406000000     0.729000000    -0.425000000
O     5.060000000     0.069000000     1.575000000
O     8.554000000    -1.839000000    -0.177000000
H     8.724000000    -2.780000000    -0.219000000
H     7.973000000    -1.668000000    -0.919000000
O     6.649000000    -1.012000000     3.461000000
H     7.257000000    -1.671000000     3.126000000
H     6.172000000    -0.712000000     2.687000000
O     8.584000000    -4.761000000     1.462000000
H     8.907000000    -5.420000000     2.077000000
H     7.729000000    -4.508000000     1.810000000
O    10.447000000     2.327000000    -0.651000000
H     9.530000000     2.097000000    -0.496000000
H    10.933000000     1.819000000    -0.001000000
O     6.694000000    -1.119000000    -1.904000000
H     6.449000000    -0.946000000    -2.813000000
H     6.163000000    -0.510000000    -1.392000000
O     6.596000000     3.726000000    -0.111000000
H     7.180000000     3.481000000     0.607000000
H     5.917000000     3.053000000    -0.109000000
O     7.872000000     5.489000000    -1.852000000
H     7.326000000     4.974000000    -1.258000000
H     8.770000000     5.261000000    -1.612000000
O     4.888000000    -2.716000000     2.019000000
H     4.737000000    -1.802000000     1.776000000
H     5.127000000    -3.146000000     1.198000000
O     6.398000000     4.853000000     3.927000000
H     6.437000000     4.218000000     3.211000000
H     6.293000000     5.699000000     3.491000000
O     5.665000000    -3.812000000    -0.477000000
H     5.686000000    -4.761000000    -0.596000000
H     6.429000000    -3.493000000    -0.957000000
O     6.242000000    -4.827000000     2.803000000
H     5.973000000    -5.654000000     2.403000000
H     5.428000000    -4.332000000     2.899000000
O     7.602000000     0.190000000    -4.264000000
H     7.509000000     1.073000000    -3.906000000
H     8.172000000    -0.263000000    -3.643000000
O     5.461000000     2.161000000     3.060000000
H     4.669000000     2.253000000     3.589000000
H     5.293000000     1.397000000     2.507000000
O     7.985000000     2.705000000     2.182000000
H     7.223000000     2.420000000     2.687000000
H     8.010000000     2.111000000     1.431000000
O    10.007000000    -2.077000000     2.459000000
H     9.947000000    -2.941000000     2.866000000
H     9.687000000    -2.209000000     1.567000000
O     7.893000000     0.185000000     5.654000000
H     7.353000000     0.966000000     5.533000000
H     7.565000000    -0.437000000     5.005000000
O     7.988000000     0.978000000     0.086000000
H     8.388000000     0.110000000     0.037000000
H     7.053000000     0.805000000     0.199000000
O     7.446000000     2.331000000    -2.339000000
H     7.179000000     3.115000000    -1.859000000
H     7.344000000     1.618000000    -1.708000000
O     4.456000000    -2.449000000     4.712000000
H     4.355000000    -2.677000000     3.788000000
H     4.981000000    -1.649000000     4.706000000
