218
-1464.47934
C     0.017000000     1.550000000     5.197000000
H    -0.805000000     0.957000000     5.589000000
C    -0.154000000     2.343000000     4.066000000
C     0.873000000     3.055000000     3.561000000
H     0.752000000     3.574000000     2.614000000
C    -1.465000000     2.202000000     3.210000000
O    -2.487000000     1.488000000     3.960000000
H    -1.147000000     1.663000000     2.305000000
O    -1.883000000     3.510000000     2.732000000
C    -2.337000000     3.662000000     1.432000000
C    -1.453000000     4.217000000     0.482000000
H    -0.535000000     4.631000000     0.893000000
C    -1.759000000     4.241000000    -0.845000000
O    -0.786000000     4.780000000    -1.582000000
C    -2.954000000     3.617000000    -1.323000000
C    -3.347000000     3.576000000    -2.829000000
H    -4.428000000     3.638000000    -2.969000000
C    -2.740000000     2.351000000    -3.484000000
C    -3.456000000     1.158000000    -3.482000000
H    -4.474000000     1.078000000    -3.109000000
H    -3.148000000     4.510000000    -3.358000000
C    -3.814000000     3.117000000    -0.369000000
H    -4.732000000     2.656000000    -0.724000000
C    -3.520000000     3.133000000     0.985000000
C    -4.433000000     2.456000000     1.994000000
H    -5.471000000     2.453000000     1.655000000
H    -4.519000000     3.016000000     2.927000000
C    -4.103000000     1.000000000     2.177000000
C    -4.624000000     0.030000000     1.356000000
H    -5.194000000     0.313000000     0.474000000
C    -3.191000000     0.563000000     3.235000000
C    -2.916000000    -0.790000000     3.495000000
H    -2.217000000    -1.065000000     4.280000000
C    -3.520000000    -1.729000000     2.676000000
O    -3.117000000    -3.000000000     2.850000000
C    -2.036000000    -3.350000000     1.942000000
C    -0.896000000    -4.130000000     2.662000000
C    -0.099000000    -5.048000000     1.900000000
H    -0.421000000    -5.427000000     0.933000000
C    -0.437000000    -3.766000000     3.924000000
H    -0.836000000    -2.900000000     4.447000000
O    -2.729000000    -4.132000000     0.870000000
H    -1.594000000    -2.474000000     1.444000000
C    -4.356000000    -1.309000000     1.656000000
C    -4.996000000    -2.280000000     0.674000000
H    -5.931000000    -1.832000000     0.333000000
H    -5.175000000    -3.230000000     1.181000000
C    -4.006000000    -2.557000000    -0.494000000
C    -4.217000000    -1.841000000    -1.660000000
H    -4.926000000    -1.023000000    -1.757000000
C    -2.962000000    -3.461000000    -0.345000000
C    -2.142000000    -3.707000000    -1.415000000
H    -1.186000000    -4.204000000    -1.270000000
C    -2.366000000    -3.085000000    -2.602000000
O    -1.327000000    -3.160000000    -3.594000000
C    -0.464000000    -1.991000000    -3.575000000
C     1.022000000    -2.394000000    -3.650000000
C     1.563000000    -3.461000000    -2.944000000
H     0.798000000    -4.009000000    -2.400000000
C     1.957000000    -1.638000000    -4.446000000
H     1.617000000    -0.845000000    -5.107000000
O    -0.819000000    -1.163000000    -4.694000000
H    -0.517000000    -1.422000000    -2.635000000
C    -3.387000000    -2.115000000    -2.705000000
C    -3.647000000    -1.333000000    -3.975000000
H    -4.705000000    -1.079000000    -3.888000000
H    -3.476000000    -1.892000000    -4.898000000
C    -2.873000000     0.022000000    -4.037000000
C    -1.532000000    -0.011000000    -4.420000000
C    -0.844000000     1.178000000    -4.408000000
H     0.227000000     1.179000000    -4.593000000
C    -1.422000000     2.374000000    -3.955000000
O    -0.581000000     3.477000000    -3.716000000
C    -0.020000000     3.759000000    -2.411000000
H    -0.047000000     2.810000000    -1.856000000
C     1.496000000     4.225000000    -2.526000000
C     2.143000000     4.878000000    -1.459000000
H     1.543000000     5.184000000    -0.607000000
C     2.191000000     3.788000000    -3.617000000
H     1.752000000     3.111000000    -4.345000000
C     3.577000000     3.978000000    -3.608000000
O     4.357000000     3.392000000    -4.552000000
C     4.197000000     4.615000000    -2.500000000
H     5.260000000     4.842000000    -2.501000000
C     3.491000000     5.083000000    -1.384000000
O     4.136000000     5.674000000    -0.293000000
C     3.636000000     5.825000000     0.921000000
C     3.647000000     4.720000000     1.736000000
H     4.151000000     3.807000000     1.428000000
C     3.030000000     7.001000000     1.295000000
H     2.953000000     7.856000000     0.627000000
C     2.291000000     7.062000000     2.515000000
H     1.746000000     7.967000000     2.770000000
C     2.379000000     5.945000000     3.384000000
H     1.821000000     6.022000000     4.314000000
C     3.104000000     4.830000000     3.002000000
O     3.245000000     3.704000000     3.760000000
C     2.094000000     3.035000000     4.249000000
C     2.300000000     2.217000000     5.312000000
H     3.305000000     2.074000000     5.701000000
C     1.235000000     1.516000000     5.819000000
O     1.413000000     0.628000000     6.889000000
C     0.794000000    -0.598000000     7.079000000
C     1.289000000    -1.727000000     6.364000000
H     2.212000000    -1.689000000     5.791000000
C    -0.284000000    -0.683000000     7.885000000
H    -0.535000000     0.238000000     8.405000000
C    -0.989000000    -1.888000000     8.006000000
H    -1.934000000    -1.961000000     8.538000000
C    -0.505000000    -3.002000000     7.349000000
H    -0.940000000    -3.982000000     7.524000000
C     0.560000000    -2.914000000     6.520000000
O     1.042000000    -4.006000000     5.831000000
C     0.665000000    -4.356000000     4.510000000
C     1.480000000    -5.217000000     3.775000000
H     2.333000000    -5.732000000     4.211000000
C     1.070000000    -5.602000000     2.467000000
O     1.729000000    -6.603000000     1.766000000
C     1.700000000    -6.707000000     0.360000000
C     2.359000000    -5.697000000    -0.349000000
H     2.566000000    -4.817000000     0.255000000
C     1.238000000    -7.822000000    -0.300000000
H     0.658000000    -8.561000000     0.247000000
C     1.544000000    -8.063000000    -1.642000000
H     1.348000000    -9.038000000    -2.079000000
C     2.381000000    -7.113000000    -2.301000000
H     2.724000000    -7.354000000    -3.303000000
C     2.669000000    -5.851000000    -1.674000000
O     3.375000000    -4.934000000    -2.405000000
C     2.884000000    -3.839000000    -3.138000000
C     3.783000000    -3.047000000    -3.790000000
H     4.853000000    -3.142000000    -3.621000000
C     3.317000000    -1.901000000    -4.469000000
O     4.246000000    -1.272000000    -5.270000000
C     3.999000000    -0.020000000    -5.686000000
C     3.532000000     0.259000000    -6.979000000
H     3.422000000    -0.617000000    -7.613000000
C     3.199000000     1.553000000    -7.437000000
H     2.981000000     1.687000000    -8.494000000
C     3.405000000     2.615000000    -6.504000000
H     3.371000000     3.655000000    -6.817000000
C     3.982000000     2.328000000    -5.294000000
C     4.285000000     1.041000000    -4.830000000
H     4.645000000     0.921000000    -3.811000000
C     2.726000000     0.241000000     2.249000000
H     2.946000000    -0.214000000     3.211000000
C     1.371000000     0.127000000     1.728000000
H     0.608000000    -0.402000000     2.293000000
C     1.181000000     0.562000000     0.418000000
C    -0.173000000     0.292000000    -0.340000000
H    -0.968000000     0.954000000     0.010000000
H     0.117000000     0.281000000    -1.393000000
H    -0.483000000    -0.721000000    -0.076000000
C     2.157000000     1.113000000    -0.351000000
H     1.954000000     1.584000000    -1.310000000
C     3.441000000     1.275000000     0.175000000
H     4.197000000     1.711000000    -0.473000000
C     3.776000000     0.853000000     1.458000000
C     5.162000000     0.994000000     2.040000000
O     6.027000000     1.469000000     1.320000000
O     5.437000000     0.461000000     3.113000000
O     6.781000000    -2.385000000    -2.040000000
H     7.413000000    -2.750000000    -2.660000000
H     6.844000000    -1.438000000    -2.163000000
O     7.451000000    -1.118000000     3.520000000
H     7.192000000    -2.039000000     3.474000000
H     6.625000000    -0.636000000     3.480000000
O     8.576000000     4.712000000    -2.178000000
H     7.854000000     4.335000000    -1.676000000
H     8.890000000     3.992000000    -2.726000000
O     6.541000000     0.282000000    -2.210000000
H     7.183000000     0.822000000    -2.670000000
H     6.642000000     0.521000000    -1.289000000
O     7.409000000     3.598000000     1.984000000
H     8.298000000     3.246000000     1.931000000
H     6.842000000     2.833000000     1.892000000
O     9.981000000     2.447000000     2.724000000
H     9.990000000     2.914000000     3.560000000
H     9.946000000     1.522000000     2.968000000
O     8.722000000     1.806000000     7.204000000
H     8.177000000     2.544000000     6.933000000
H     8.318000000     1.044000000     6.790000000
O     6.078000000    -2.317000000     1.078000000
H     6.366000000    -1.489000000     1.461000000
H     6.211000000    -2.204000000     0.136000000
O     7.081000000    -4.135000000     3.847000000
H     6.536000000    -4.427000000     3.116000000
H     6.464000000    -3.995000000     4.565000000
O     6.149000000     5.874000000     3.465000000
H     5.980000000     5.348000000     2.683000000
H     7.074000000     6.112000000     3.398000000
O    10.882000000     1.067000000    -0.759000000
H    11.103000000     0.395000000    -1.404000000
H    10.133000000     0.707000000    -0.284000000
O     6.803000000     2.091000000     4.676000000
H     6.985000000     2.723000000     3.981000000
H     6.263000000     1.421000000     4.256000000
O     8.321000000     0.072000000     1.000000000
H     8.383000000    -0.180000000     1.922000000
H     7.654000000     0.757000000     0.984000000
O     9.960000000    -2.478000000    -0.453000000
H     9.751000000    -3.288000000     0.013000000
H     9.224000000    -1.896000000    -0.264000000
O     9.936000000    -0.224000000     3.443000000
H     9.032000000    -0.507000000     3.587000000
H    10.376000000    -0.397000000     4.275000000
O     7.716000000    -0.478000000     6.289000000
H     7.240000000    -0.336000000     5.471000000
H     8.231000000    -1.270000000     6.131000000
O     5.684000000     3.807000000     6.610000000
H     5.453000000     4.442000000     5.931000000
H     5.998000000     3.043000000     6.127000000
O     6.670000000     3.438000000    -0.588000000
H     6.340000000     2.710000000    -0.060000000
H     6.579000000     4.205000000    -0.023000000
O     4.166000000    -3.555000000     3.841000000
H     3.948000000    -2.780000000     3.324000000
H     4.470000000    -4.195000000     3.198000000
