218
-1466.56913
C     0.072000000     2.810000000     4.484000000
H    -0.753000000     2.159000000     4.762000000
C    -0.130000000     3.476000000     3.299000000
C     0.852000000     4.389000000     2.860000000
H     0.849000000     4.848000000     1.875000000
C    -1.352000000     3.192000000     2.367000000
O    -2.462000000     2.714000000     3.169000000
H    -1.142000000     2.400000000     1.633000000
O    -1.700000000     4.449000000     1.677000000
C    -1.936000000     4.166000000     0.306000000
C    -0.953000000     4.434000000    -0.692000000
H     0.042000000     4.738000000    -0.377000000
C    -1.129000000     4.005000000    -1.977000000
O    -0.097000000     4.085000000    -2.829000000
C    -2.343000000     3.422000000    -2.377000000
C    -2.599000000     2.969000000    -3.849000000
H    -3.639000000     3.091000000    -4.158000000
C    -2.082000000     1.581000000    -4.133000000
C    -3.012000000     0.538000000    -4.059000000
H    -4.058000000     0.698000000    -3.808000000
H    -2.063000000     3.680000000    -4.481000000
C    -3.278000000     3.157000000    -1.394000000
H    -4.154000000     2.562000000    -1.639000000
C    -3.108000000     3.499000000    -0.057000000
C    -4.240000000     3.229000000     0.877000000
H    -5.203000000     3.418000000     0.398000000
H    -4.389000000     4.009000000     1.628000000
C    -4.095000000     1.885000000     1.486000000
C    -4.655000000     0.780000000     0.874000000
H    -5.218000000     0.788000000    -0.056000000
C    -3.367000000     1.742000000     2.680000000
C    -3.259000000     0.497000000     3.312000000
H    -2.604000000     0.319000000     4.162000000
C    -3.834000000    -0.614000000     2.701000000
O    -3.576000000    -1.854000000     3.170000000
C    -2.568000000    -2.590000000     2.407000000
C    -1.487000000    -3.213000000     3.334000000
C    -0.991000000    -4.442000000     3.081000000
H    -1.463000000    -5.047000000     2.312000000
C    -0.922000000    -2.464000000     4.336000000
H    -1.403000000    -1.520000000     4.578000000
O    -3.223000000    -3.514000000     1.613000000
H    -2.070000000    -1.886000000     1.724000000
C    -4.553000000    -0.402000000     1.558000000
C    -5.290000000    -1.636000000     0.852000000
H    -6.199000000    -1.371000000     0.307000000
H    -5.646000000    -2.362000000     1.586000000
C    -4.390000000    -2.246000000    -0.180000000
C    -4.460000000    -1.864000000    -1.539000000
H    -5.133000000    -1.125000000    -1.966000000
C    -3.395000000    -3.158000000     0.227000000
C    -2.503000000    -3.707000000    -0.654000000
H    -1.714000000    -4.391000000    -0.350000000
C    -2.618000000    -3.421000000    -1.982000000
O    -1.678000000    -3.832000000    -2.893000000
C    -0.624000000    -2.947000000    -3.193000000
C     0.740000000    -3.596000000    -3.071000000
C     0.906000000    -4.548000000    -2.083000000
H     0.135000000    -4.818000000    -1.367000000
C     1.830000000    -3.282000000    -3.917000000
H     1.628000000    -2.570000000    -4.713000000
O    -0.774000000    -2.364000000    -4.468000000
H    -0.578000000    -2.133000000    -2.455000000
C    -3.653000000    -2.543000000    -2.454000000
C    -3.588000000    -1.985000000    -3.879000000
H    -4.620000000    -1.718000000    -4.118000000
H    -3.282000000    -2.785000000    -4.556000000
C    -2.568000000    -0.808000000    -4.110000000
C    -1.212000000    -1.082000000    -4.423000000
C    -0.298000000     0.023000000    -4.627000000
H     0.714000000    -0.200000000    -4.955000000
C    -0.683000000     1.319000000    -4.288000000
O     0.314000000     2.265000000    -4.302000000
C     0.710000000     2.926000000    -3.024000000
H     0.421000000     2.280000000    -2.182000000
C     2.202000000     3.090000000    -2.953000000
C     2.762000000     4.089000000    -2.150000000
H     2.076000000     4.720000000    -1.591000000
C     2.997000000     2.149000000    -3.546000000
H     2.587000000     1.296000000    -4.082000000
C     4.361000000     2.200000000    -3.304000000
O     5.159000000     1.213000000    -3.811000000
C     4.982000000     3.252000000    -2.539000000
H     6.015000000     3.336000000    -2.212000000
C     4.162000000     4.165000000    -1.981000000
O     4.769000000     5.116000000    -1.183000000
C     4.066000000     5.922000000    -0.263000000
C     3.695000000     5.393000000     0.995000000
H     4.059000000     4.399000000     1.242000000
C     3.751000000     7.263000000    -0.587000000
H     4.130000000     7.622000000    -1.540000000
C     3.035000000     8.039000000     0.337000000
H     2.883000000     9.085000000     0.083000000
C     2.713000000     7.469000000     1.591000000
H     2.175000000     8.002000000     2.371000000
C     2.973000000     6.166000000     1.903000000
O     2.814000000     5.689000000     3.203000000
C     1.960000000     4.694000000     3.639000000
C     2.144000000     3.925000000     4.856000000
H     3.035000000     4.066000000     5.462000000
C     1.140000000     3.052000000     5.265000000
O     1.210000000     2.432000000     6.530000000
C     0.476000000     1.285000000     6.876000000
C     1.005000000     0.096000000     6.396000000
H     1.903000000     0.173000000     5.788000000
C    -0.670000000     1.398000000     7.673000000
H    -1.085000000     2.329000000     8.051000000
C    -1.315000000     0.215000000     7.948000000
H    -2.182000000     0.172000000     8.603000000
C    -0.811000000    -1.030000000     7.487000000
H    -1.272000000    -1.955000000     7.823000000
C     0.405000000    -1.087000000     6.759000000
O     0.735000000    -2.292000000     6.160000000
C     0.165000000    -2.898000000     5.065000000
C     0.752000000    -4.125000000     4.743000000
H     1.643000000    -4.427000000     5.288000000
C     0.170000000    -4.911000000     3.708000000
O     0.686000000    -6.102000000     3.330000000
C     0.617000000    -6.714000000     2.073000000
C     1.463000000    -6.193000000     1.049000000
H     2.117000000    -5.336000000     1.187000000
C    -0.186000000    -7.780000000     1.932000000
H    -0.715000000    -8.168000000     2.798000000
C    -0.225000000    -8.349000000     0.669000000
H    -0.941000000    -9.125000000     0.410000000
C     0.522000000    -7.828000000    -0.378000000
H     0.463000000    -8.369000000    -1.319000000
C     1.399000000    -6.781000000    -0.173000000
O     2.278000000    -6.338000000    -1.199000000
C     2.131000000    -5.229000000    -1.991000000
C     3.226000000    -4.702000000    -2.711000000
H     4.200000000    -5.127000000    -2.482000000
C     3.071000000    -3.821000000    -3.724000000
O     4.216000000    -3.496000000    -4.370000000
C     4.427000000    -2.255000000    -4.997000000
C     4.781000000    -2.150000000    -6.291000000
H     4.758000000    -2.989000000    -6.982000000
C     4.991000000    -0.841000000    -6.806000000
H     5.329000000    -0.702000000    -7.830000000
C     5.069000000     0.266000000    -6.011000000
H     5.387000000     1.212000000    -6.443000000
C     4.889000000     0.113000000    -4.634000000
C     4.624000000    -1.162000000    -4.122000000
H     4.476000000    -1.357000000    -3.063000000
C     1.965000000     0.721000000     2.090000000
H     2.089000000     0.633000000     3.166000000
C     0.866000000     0.163000000     1.468000000
H     0.078000000    -0.313000000     2.045000000
C     0.671000000     0.278000000     0.055000000
C    -0.628000000    -0.290000000    -0.489000000
H    -0.630000000    -0.194000000    -1.577000000
H    -0.604000000    -1.363000000    -0.290000000
H    -1.606000000     0.077000000    -0.171000000
C     1.776000000     0.616000000    -0.723000000
H     1.785000000     0.558000000    -1.809000000
C     2.897000000     1.086000000    -0.119000000
H     3.791000000     1.394000000    -0.656000000
C     3.044000000     1.164000000     1.283000000
C     4.303000000     1.774000000     1.871000000
O     5.172000000     2.131000000     1.142000000
O     4.451000000     2.002000000     3.048000000
O     7.209000000     0.613000000     3.322000000
H     7.032000000     0.959000000     4.197000000
H     6.645000000     1.127000000     2.743000000
O     9.436000000     1.249000000     5.195000000
H     9.474000000     0.637000000     4.460000000
H     8.771000000     0.883000000     5.778000000
O     8.550000000    -1.916000000     4.201000000
H     8.563000000    -2.453000000     3.409000000
H     8.377000000    -1.029000000     3.886000000
O     7.441000000     3.474000000     5.963000000
H     7.100000000     3.789000000     5.126000000
H     7.813000000     2.615000000     5.762000000
O     9.901000000     0.293000000     2.418000000
H     9.096000000     0.065000000     1.954000000
H    10.321000000     0.949000000     1.862000000
O     3.675000000    -1.627000000     5.237000000
H     2.866000000    -1.830000000     5.707000000
H     4.274000000    -2.335000000     5.475000000
O     4.087000000    -2.007000000     2.418000000
H     3.220000000    -2.014000000     2.012000000
H     3.910000000    -1.967000000     3.358000000
O     9.449000000     5.026000000     1.662000000
H     8.594000000     4.617000000     1.528000000
H    10.028000000     4.580000000     1.045000000
O     8.654000000     2.632000000    -1.276000000
H     9.328000000     3.225000000    -1.607000000
H     8.472000000     2.043000000    -2.008000000
O     5.958000000     4.021000000     3.678000000
H     5.259000000     3.407000000     3.452000000
H     6.474000000     4.101000000     2.876000000
O     3.771000000     1.936000000     8.149000000
H     4.126000000     1.893000000     7.262000000
H     3.257000000     1.133000000     8.241000000
O     5.241000000     6.663000000     4.224000000
H     5.920000000     6.535000000     4.887000000
H     5.302000000     5.889000000     3.665000000
O     7.930000000     0.841000000    -3.226000000
H     7.262000000     0.443000000    -2.668000000
H     8.349000000     0.100000000    -3.665000000
O     6.938000000     4.075000000     1.073000000
H     7.072000000     4.063000000     0.125000000
H     6.364000000     3.329000000     1.243000000
O     6.626000000     0.318000000    -0.367000000
H     6.047000000     0.829000000     0.198000000
H     7.431000000     0.835000000    -0.415000000
O     8.114000000    -3.674000000     2.070000000
H     7.635000000    -2.986000000     1.608000000
H     7.455000000    -4.096000000     2.621000000
O     4.435000000     1.035000000     5.727000000
H     4.217000000     0.119000000     5.557000000
H     4.267000000     1.479000000     4.895000000
O     7.276000000     0.220000000     6.506000000
H     6.467000000     0.707000000     6.351000000
H     7.143000000    -0.202000000     7.355000000
O     6.181000000    -2.237000000     0.718000000
H     5.450000000    -2.086000000     1.316000000
H     6.157000000    -1.493000000     0.116000000
