218
-1469.07255
C    -0.254000000     2.482000000     4.617000000
H    -1.277000000     2.153000000     4.781000000
C    -0.018000000     3.354000000     3.525000000
C     1.254000000     3.853000000     3.289000000
H     1.425000000     4.361000000     2.344000000
C    -1.080000000     3.359000000     2.392000000
O    -2.442000000     3.212000000     2.825000000
H    -0.900000000     2.490000000     1.741000000
O    -1.057000000     4.575000000     1.518000000
C    -1.106000000     4.401000000     0.134000000
C     0.146000000     4.497000000    -0.555000000
H     1.122000000     4.508000000    -0.078000000
C     0.165000000     4.246000000    -1.929000000
O     1.361000000     4.214000000    -2.601000000
C    -0.992000000     4.008000000    -2.616000000
C    -1.019000000     3.788000000    -4.106000000
H    -1.931000000     4.237000000    -4.505000000
C    -0.869000000     2.315000000    -4.340000000
C    -2.015000000     1.531000000    -4.341000000
H    -2.972000000     2.028000000    -4.202000000
H    -0.191000000     4.290000000    -4.611000000
C    -2.200000000     3.912000000    -1.955000000
H    -3.134000000     3.809000000    -2.502000000
C    -2.247000000     4.167000000    -0.537000000
C    -3.644000000     4.124000000     0.207000000
H    -4.463000000     4.347000000    -0.480000000
H    -3.697000000     4.895000000     0.977000000
C    -3.845000000     2.734000000     0.883000000
C    -4.646000000     1.769000000     0.224000000
H    -5.157000000     2.001000000    -0.707000000
C    -3.252000000     2.354000000     2.122000000
C    -3.448000000     1.091000000     2.635000000
H    -3.083000000     0.826000000     3.624000000
C    -4.166000000     0.136000000     1.879000000
O    -4.103000000    -1.146000000     2.327000000
C    -3.328000000    -2.088000000     1.624000000
C    -2.630000000    -3.002000000     2.589000000
C    -2.119000000    -4.267000000     2.259000000
H    -2.431000000    -4.736000000     1.330000000
C    -2.312000000    -2.543000000     3.904000000
H    -2.637000000    -1.546000000     4.192000000
O    -4.115000000    -2.856000000     0.748000000
H    -2.581000000    -1.545000000     1.027000000
C    -4.815000000     0.504000000     0.698000000
C    -5.571000000    -0.553000000    -0.110000000
H    -6.427000000    -0.136000000    -0.644000000
H    -6.069000000    -1.196000000     0.619000000
C    -4.728000000    -1.323000000    -1.022000000
C    -4.547000000    -0.829000000    -2.329000000
H    -5.168000000     0.023000000    -2.596000000
C    -4.039000000    -2.441000000    -0.587000000
C    -3.027000000    -2.984000000    -1.349000000
H    -2.440000000    -3.819000000    -0.974000000
C    -2.805000000    -2.487000000    -2.709000000
O    -1.840000000    -3.071000000    -3.418000000
C    -0.572000000    -2.459000000    -3.398000000
C     0.541000000    -3.475000000    -3.196000000
C     0.267000000    -4.730000000    -2.671000000
H    -0.785000000    -4.990000000    -2.587000000
C     1.881000000    -3.112000000    -3.262000000
H     2.095000000    -2.102000000    -3.601000000
O    -0.295000000    -1.752000000    -4.611000000
H    -0.523000000    -1.741000000    -2.566000000
C    -3.531000000    -1.355000000    -3.155000000
C    -3.249000000    -0.760000000    -4.562000000
H    -4.144000000    -0.213000000    -4.866000000
H    -3.090000000    -1.592000000    -5.251000000
C    -1.918000000     0.121000000    -4.475000000
C    -0.612000000    -0.416000000    -4.546000000
C     0.507000000     0.397000000    -4.423000000
H     1.507000000    -0.028000000    -4.408000000
C     0.433000000     1.736000000    -4.350000000
O     1.556000000     2.564000000    -4.223000000
C     1.836000000     2.948000000    -2.810000000
H     1.269000000     2.199000000    -2.237000000
C     3.266000000     2.743000000    -2.350000000
C     3.899000000     3.681000000    -1.535000000
H     3.359000000     4.490000000    -1.049000000
C     4.042000000     1.654000000    -2.875000000
H     3.566000000     1.014000000    -3.614000000
C     5.381000000     1.541000000    -2.442000000
O     6.247000000     0.730000000    -3.172000000
C     5.904000000     2.449000000    -1.510000000
H     6.968000000     2.440000000    -1.292000000
C     5.237000000     3.519000000    -1.060000000
O     5.870000000     4.346000000    -0.164000000
C     5.130000000     5.061000000     0.741000000
C     4.585000000     4.390000000     1.858000000
H     4.896000000     3.365000000     2.043000000
C     4.832000000     6.414000000     0.574000000
H     5.190000000     6.890000000    -0.336000000
C     4.204000000     7.058000000     1.611000000
H     3.996000000     8.118000000     1.490000000
C     3.662000000     6.393000000     2.737000000
H     3.058000000     6.895000000     3.488000000
C     3.848000000     5.040000000     2.847000000
O     3.456000000     4.362000000     4.005000000
C     2.246000000     3.654000000     4.253000000
C     1.957000000     2.818000000     5.335000000
H     2.727000000     2.686000000     6.091000000
C     0.776000000     2.146000000     5.525000000
O     0.564000000     1.402000000     6.588000000
C    -0.487000000     0.521000000     6.754000000
C    -0.351000000    -0.833000000     6.526000000
H     0.560000000    -1.193000000     6.055000000
C    -1.701000000     0.963000000     7.281000000
H    -1.747000000     2.015000000     7.553000000
C    -2.815000000     0.153000000     7.349000000
H    -3.808000000     0.506000000     7.615000000
C    -2.713000000    -1.181000000     6.941000000
H    -3.619000000    -1.771000000     7.058000000
C    -1.476000000    -1.646000000     6.508000000
O    -1.373000000    -2.944000000     6.128000000
C    -1.617000000    -3.269000000     4.827000000
C    -1.117000000    -4.482000000     4.417000000
H    -0.549000000    -5.075000000     5.130000000
C    -1.261000000    -4.978000000     3.101000000
O    -0.781000000    -6.243000000     2.885000000
C    -0.904000000    -6.790000000     1.610000000
C    -0.025000000    -6.338000000     0.626000000
H     0.600000000    -5.462000000     0.773000000
C    -1.769000000    -7.834000000     1.388000000
H    -2.403000000    -8.123000000     2.223000000
C    -1.760000000    -8.493000000     0.184000000
H    -2.473000000    -9.299000000     0.033000000
C    -0.786000000    -8.184000000    -0.787000000
H    -0.683000000    -8.859000000    -1.633000000
C    -0.056000000    -7.034000000    -0.553000000
O     0.855000000    -6.782000000    -1.580000000
C     1.255000000    -5.566000000    -2.159000000
C     2.564000000    -5.192000000    -2.271000000
H     3.326000000    -5.884000000    -1.922000000
C     2.871000000    -3.978000000    -2.777000000
O     4.230000000    -3.603000000    -2.656000000
C     4.806000000    -2.654000000    -3.457000000
C     5.070000000    -2.961000000    -4.796000000
H     4.608000000    -3.808000000    -5.297000000
C     5.780000000    -1.985000000    -5.497000000
H     6.043000000    -2.198000000    -6.529000000
C     6.201000000    -0.795000000    -4.909000000
H     6.734000000    -0.086000000    -5.536000000
C     5.857000000    -0.498000000    -3.618000000
C     5.170000000    -1.455000000    -2.911000000
H     5.035000000    -1.233000000    -1.855000000
C     1.595000000     0.006000000     2.478000000
H     1.601000000    -0.042000000     3.564000000
C     0.422000000     0.201000000     1.733000000
H    -0.526000000     0.281000000     2.258000000
C     0.455000000     0.290000000     0.311000000
C    -0.731000000     0.470000000    -0.560000000
H    -1.033000000    -0.490000000    -0.984000000
H    -1.597000000     0.935000000    -0.085000000
H    -0.555000000     1.068000000    -1.458000000
C     1.716000000     0.134000000    -0.289000000
H     1.870000000     0.183000000    -1.364000000
C     2.869000000     0.080000000     0.451000000
H     3.841000000    -0.006000000    -0.027000000
C     2.791000000     0.037000000     1.820000000
C     4.113000000    -0.066000000     2.719000000
O     5.190000000    -0.147000000     2.142000000
O     3.943000000    -0.299000000     3.938000000
O     5.623000000    -5.777000000     0.201000000
H     4.958000000    -6.397000000     0.502000000
H     5.791000000    -5.218000000     0.960000000
O     7.400000000    -2.146000000     2.028000000
H     6.575000000    -1.951000000     2.474000000
H     7.847000000    -1.302000000     1.972000000
O     3.388000000    -3.539000000     7.693000000
H     2.443000000    -3.492000000     7.546000000
H     3.701000000    -2.651000000     7.520000000
O     6.153000000    -0.310000000     7.560000000
H     6.337000000    -1.159000000     7.963000000
H     6.360000000    -0.435000000     6.633000000
O     3.066000000    -5.259000000     2.649000000
H     2.975000000    -4.309000000     2.574000000
H     2.788000000    -5.456000000     3.544000000
O     5.199000000     1.922000000     4.974000000
H     5.734000000     1.545000000     5.672000000
H     4.706000000     1.181000000     4.623000000
O     3.140000000     0.653000000     8.677000000
H     2.711000000     1.303000000     9.233000000
H     3.926000000     0.403000000     9.164000000
O     6.390000000    -4.585000000     2.928000000
H     6.835000000    -3.751000000     2.776000000
H     5.523000000    -4.339000000     3.251000000
O     7.627000000     1.352000000     2.408000000
H     7.573000000     2.140000000     2.949000000
H     6.735000000     1.004000000     2.403000000
O     9.680000000     2.808000000     4.489000000
H     8.885000000     3.338000000     4.440000000
H     9.595000000     2.323000000     5.310000000
O     7.246000000    -3.712000000     5.812000000
H     6.692000000    -4.251000000     6.378000000
H     6.734000000    -2.918000000     5.662000000
O     6.967000000     3.622000000     3.758000000
H     6.474000000     4.396000000     3.485000000
H     6.401000000     3.190000000     4.398000000
O     6.339000000    -0.791000000     4.981000000
H     5.562000000    -0.579000000     4.464000000
H     7.063000000    -0.393000000     4.499000000
O     9.315000000     0.801000000     0.357000000
H     8.843000000     0.992000000     1.167000000
H     8.646000000     0.459000000    -0.236000000
O     8.125000000    -2.428000000    -0.708000000
H     7.618000000    -2.350000000     0.100000000
H     9.037000000    -2.365000000    -0.426000000
O     8.352000000     3.914000000     0.668000000
H     7.534000000     3.490000000     0.928000000
H     8.192000000     4.847000000     0.806000000
O     8.835000000     0.656000000     6.089000000
H     8.737000000     0.193000000     6.922000000
H     9.661000000     0.333000000     5.731000000
O     3.060000000    -1.090000000     6.458000000
H     3.018000000    -0.446000000     7.165000000
H     3.264000000    -0.576000000     5.677000000
O     4.320000000    -2.813000000     4.303000000
H     3.475000000    -2.972000000     4.723000000
H     4.359000000    -1.863000000     4.195000000
