218
-1454.60691
C    -0.609000000     3.146000000     4.511000000
H    -1.654000000     3.105000000     4.808000000
C    -0.269000000     3.577000000     3.219000000
C     1.041000000     3.681000000     2.858000000
H     1.285000000     3.925000000     1.827000000
C    -1.347000000     3.592000000     2.160000000
O    -2.672000000     3.463000000     2.693000000
H    -1.133000000     2.699000000     1.554000000
O    -1.177000000     4.643000000     1.144000000
C    -1.238000000     4.239000000    -0.225000000
C    -0.067000000     4.305000000    -0.940000000
H     0.855000000     4.486000000    -0.393000000
C    -0.119000000     3.992000000    -2.303000000
O     1.097000000     3.940000000    -3.059000000
C    -1.331000000     3.781000000    -2.915000000
C    -1.434000000     3.410000000    -4.407000000
H    -2.464000000     3.608000000    -4.711000000
C    -1.159000000     1.941000000    -4.560000000
C    -2.190000000     0.995000000    -4.343000000
H    -3.189000000     1.401000000    -4.203000000
H    -0.848000000     4.071000000    -5.050000000
C    -2.493000000     3.786000000    -2.189000000
H    -3.445000000     3.754000000    -2.712000000
C    -2.461000000     3.915000000    -0.815000000
C    -3.700000000     3.996000000    -0.015000000
H    -4.565000000     4.145000000    -0.664000000
H    -3.767000000     4.853000000     0.658000000
C    -3.950000000     2.681000000     0.795000000
C    -4.790000000     1.738000000     0.240000000
H    -5.260000000     1.873000000    -0.730000000
C    -3.437000000     2.543000000     2.043000000
C    -3.637000000     1.279000000     2.720000000
H    -3.291000000     1.203000000     3.747000000
C    -4.310000000     0.233000000     2.082000000
O    -4.296000000    -0.978000000     2.695000000
C    -3.429000000    -1.932000000     2.128000000
C    -2.726000000    -2.737000000     3.205000000
C    -2.150000000    -3.964000000     2.943000000
H    -2.507000000    -4.528000000     2.086000000
C    -2.345000000    -2.050000000     4.361000000
H    -2.732000000    -1.057000000     4.572000000
O    -4.191000000    -2.723000000     1.224000000
H    -2.629000000    -1.366000000     1.629000000
C    -4.929000000     0.484000000     0.844000000
C    -5.700000000    -0.592000000     0.051000000
H    -6.481000000    -0.139000000    -0.562000000
H    -6.293000000    -1.263000000     0.675000000
C    -4.708000000    -1.458000000    -0.704000000
C    -4.378000000    -1.042000000    -2.010000000
H    -4.981000000    -0.296000000    -2.523000000
C    -3.980000000    -2.493000000    -0.112000000
C    -2.847000000    -3.018000000    -0.742000000
H    -2.267000000    -3.785000000    -0.236000000
C    -2.585000000    -2.665000000    -2.048000000
O    -1.549000000    -3.322000000    -2.635000000
C    -0.265000000    -2.645000000    -2.871000000
C     0.865000000    -3.549000000    -2.690000000
C     0.851000000    -4.341000000    -1.567000000
H    -0.088000000    -4.451000000    -1.030000000
C     2.040000000    -3.408000000    -3.351000000
H     2.101000000    -2.704000000    -4.177000000
O    -0.213000000    -2.084000000    -4.198000000
H    -0.175000000    -1.838000000    -2.129000000
C    -3.370000000    -1.708000000    -2.702000000
C    -3.078000000    -1.384000000    -4.212000000
H    -3.983000000    -1.082000000    -4.744000000
H    -2.736000000    -2.251000000    -4.781000000
C    -1.936000000    -0.367000000    -4.289000000
C    -0.600000000    -0.804000000    -4.423000000
C     0.414000000     0.149000000    -4.632000000
H     1.442000000    -0.200000000    -4.565000000
C     0.186000000     1.549000000    -4.748000000
O     1.289000000     2.311000000    -4.675000000
C     1.622000000     2.571000000    -3.321000000
H     1.093000000     1.868000000    -2.661000000
C     3.125000000     2.515000000    -3.121000000
C     3.716000000     3.212000000    -2.043000000
H     3.124000000     3.974000000    -1.544000000
C     3.889000000     1.479000000    -3.709000000
H     3.392000000     0.838000000    -4.432000000
C     5.244000000     1.267000000    -3.396000000
O     6.026000000     0.416000000    -4.078000000
C     5.803000000     2.057000000    -2.373000000
H     6.875000000     2.079000000    -2.191000000
C     5.094000000     3.099000000    -1.786000000
O     5.761000000     3.934000000    -0.791000000
C     4.948000000     4.484000000     0.194000000
C     4.375000000     3.761000000     1.226000000
H     4.490000000     2.680000000     1.224000000
C     4.713000000     5.811000000     0.117000000
H     5.029000000     6.545000000    -0.620000000
C     3.974000000     6.374000000     1.113000000
H     3.727000000     7.431000000     1.050000000
C     3.530000000     5.673000000     2.274000000
H     3.080000000     6.171000000     3.128000000
C     3.785000000     4.354000000     2.350000000
O     3.344000000     3.539000000     3.370000000
C     2.058000000     3.544000000     3.780000000
C     1.746000000     3.228000000     5.102000000
H     2.523000000     2.998000000     5.826000000
C     0.381000000     3.069000000     5.494000000
O     0.034000000     2.789000000     6.817000000
C    -0.700000000     1.674000000     7.096000000
C    -0.351000000     0.473000000     6.558000000
H     0.524000000     0.338000000     5.927000000
C    -1.888000000     1.855000000     7.839000000
H    -2.273000000     2.798000000     8.219000000
C    -2.754000000     0.830000000     7.929000000
H    -3.698000000     0.950000000     8.454000000
C    -2.290000000    -0.475000000     7.663000000
H    -3.010000000    -1.268000000     7.847000000
C    -1.133000000    -0.667000000     6.927000000
O    -0.828000000    -1.911000000     6.348000000
C    -1.332000000    -2.527000000     5.262000000
C    -0.831000000    -3.800000000     4.989000000
H    -0.195000000    -4.329000000     5.694000000
C    -1.220000000    -4.527000000     3.865000000
O    -0.868000000    -5.870000000     3.710000000
C    -0.373000000    -6.504000000     2.593000000
C     0.630000000    -5.927000000     1.718000000
H     1.067000000    -4.952000000     1.920000000
C    -1.037000000    -7.678000000     2.169000000
H    -1.856000000    -8.032000000     2.788000000
C    -0.680000000    -8.273000000     0.947000000
H    -1.130000000    -9.219000000     0.660000000
C     0.366000000    -7.776000000     0.148000000
H     0.686000000    -8.355000000    -0.715000000
C     0.984000000    -6.538000000     0.499000000
O     1.974000000    -6.095000000    -0.324000000
C     1.948000000    -5.231000000    -1.329000000
C     3.118000000    -5.126000000    -2.064000000
H     3.928000000    -5.839000000    -1.935000000
C     3.181000000    -4.153000000    -3.004000000
O     4.409000000    -4.048000000    -3.587000000
C     4.714000000    -2.946000000    -4.325000000
C     4.778000000    -3.108000000    -5.696000000
H     4.406000000    -4.051000000    -6.089000000
C     5.190000000    -2.108000000    -6.574000000
H     5.398000000    -2.260000000    -7.630000000
C     5.531000000    -0.907000000    -5.971000000
H     6.051000000    -0.096000000    -6.476000000
C     5.514000000    -0.756000000    -4.603000000
C     5.116000000    -1.785000000    -3.728000000
H     5.100000000    -1.796000000    -2.642000000
C     1.732000000     0.247000000     2.461000000
H     1.777000000     0.179000000     3.545000000
C     0.495000000     0.197000000     1.852000000
H    -0.401000000     0.151000000     2.465000000
C     0.391000000     0.341000000     0.446000000
C    -0.947000000     0.276000000    -0.191000000
H    -1.018000000    -0.710000000    -0.653000000
H    -1.734000000     0.398000000     0.556000000
H    -1.228000000     1.049000000    -0.910000000
C     1.471000000     0.414000000    -0.341000000
H     1.319000000     0.636000000    -1.394000000
C     2.756000000     0.394000000     0.245000000
H     3.615000000     0.455000000    -0.419000000
C     2.874000000     0.227000000     1.698000000
C     4.243000000     0.008000000     2.420000000
O     5.230000000    -0.096000000     1.709000000
O     4.394000000     0.159000000     3.622000000
O     2.705000000    -2.825000000     3.736000000
H     3.411000000    -2.192000000     3.871000000
H     2.882000000    -3.198000000     2.872000000
O     7.167000000    -2.459000000    -1.008000000
H     7.421000000    -3.242000000    -0.519000000
H     6.211000000    -2.449000000    -0.963000000
O    10.602000000     0.868000000     4.183000000
H     9.660000000     0.880000000     4.354000000
H    11.001000000     0.753000000     5.045000000
O     3.142000000    -2.364000000     6.716000000
H     2.274000000    -2.671000000     6.456000000
H     3.593000000    -3.151000000     7.023000000
O     9.257000000     2.961000000    -0.202000000
H     8.467000000     2.537000000     0.135000000
H     9.948000000     2.696000000     0.405000000
O     4.463000000     2.452000000     7.606000000
H     4.222000000     1.653000000     7.136000000
H     4.706000000     3.071000000     6.917000000
O     8.712000000     3.825000000     3.968000000
H     8.231000000     4.343000000     4.613000000
H     9.513000000     4.324000000     3.809000000
O     3.623000000    -5.065000000     4.908000000
H     3.021000000    -4.352000000     4.695000000
H     3.884000000    -4.895000000     5.813000000
O     6.893000000     1.677000000     0.442000000
H     6.382000000     2.432000000     0.149000000
H     6.259000000     1.120000000     0.894000000
O     5.484000000     2.463000000     4.889000000
H     4.825000000     3.054000000     4.523000000
H     5.255000000     1.603000000     4.539000000
O     3.334000000    -4.059000000     1.415000000
H     3.979000000    -4.743000000     1.597000000
H     2.861000000    -4.374000000     0.644000000
O     7.668000000    -3.982000000     5.160000000
H     6.739000000    -3.849000000     5.348000000
H     8.004000000    -4.445000000     5.927000000
O     9.241000000    -2.052000000     2.969000000
H     8.587000000    -1.693000000     3.569000000
H     9.207000000    -1.476000000     2.205000000
O     6.752000000     0.080000000     6.503000000
H     5.804000000     0.211000000     6.480000000
H     7.024000000     0.142000000     5.587000000
O     7.382000000    -0.036000000     3.674000000
H     6.681000000    -0.438000000     3.163000000
H     7.423000000     0.866000000     3.357000000
O     9.104000000    -1.524000000     6.116000000
H     9.430000000    -2.391000000     5.877000000
H     8.156000000    -1.636000000     6.188000000
O     3.976000000     0.038000000     6.367000000
H     3.447000000    -0.722000000     6.612000000
H     4.130000000    -0.070000000     5.429000000
O     4.786000000    -2.123000000    -0.051000000
H     4.168000000    -2.618000000     0.486000000
H     5.033000000    -1.376000000     0.494000000
O     8.566000000    -0.599000000     0.331000000
H     7.879000000     0.049000000     0.489000000
H     8.144000000    -1.269000000    -0.207000000
