218
-1433.93386
C     0.500000000     3.433000000     3.944000000
H    -0.418000000     2.863000000     4.059000000
C     0.563000000     4.207000000     2.794000000
C     1.774000000     4.852000000     2.548000000
H     1.992000000     5.327000000     1.595000000
C    -0.510000000     4.120000000     1.709000000
O    -1.872000000     4.108000000     2.281000000
H    -0.276000000     3.164000000     1.217000000
O    -0.376000000     5.154000000     0.682000000
C    -0.556000000     4.717000000    -0.643000000
C     0.688000000     4.518000000    -1.314000000
H     1.689000000     4.805000000    -1.001000000
C     0.614000000     3.916000000    -2.552000000
O     1.770000000     3.308000000    -3.023000000
C    -0.643000000     3.530000000    -3.103000000
C    -0.686000000     2.953000000    -4.480000000
H    -1.416000000     3.487000000    -5.092000000
C    -0.768000000     1.448000000    -4.427000000
C    -1.984000000     0.813000000    -4.381000000
H    -2.912000000     1.378000000    -4.374000000
H     0.193000000     3.371000000    -4.974000000
C    -1.819000000     3.834000000    -2.509000000
H    -2.723000000     3.406000000    -2.935000000
C    -1.778000000     4.349000000    -1.206000000
C    -3.069000000     4.553000000    -0.380000000
H    -3.879000000     4.726000000    -1.092000000
H    -3.093000000     5.396000000     0.313000000
C    -3.454000000     3.414000000     0.514000000
C    -4.376000000     2.507000000     0.029000000
H    -4.930000000     2.697000000    -0.887000000
C    -2.854000000     3.203000000     1.735000000
C    -3.073000000     2.033000000     2.464000000
H    -2.728000000     1.953000000     3.492000000
C    -3.942000000     1.067000000     1.941000000
O    -4.051000000    -0.172000000     2.501000000
C    -3.310000000    -1.282000000     1.935000000
C    -2.544000000    -2.004000000     3.034000000
C    -2.399000000    -3.379000000     2.891000000
H    -2.875000000    -3.825000000     2.022000000
C    -2.028000000    -1.389000000     4.094000000
H    -2.125000000    -0.308000000     4.027000000
O    -4.320000000    -2.060000000     1.281000000
H    -2.582000000    -0.997000000     1.162000000
C    -4.557000000     1.298000000     0.682000000
C    -5.513000000     0.292000000     0.121000000
H    -6.207000000     0.807000000    -0.546000000
H    -5.992000000    -0.130000000     1.007000000
C    -4.743000000    -0.666000000    -0.712000000
C    -4.328000000    -0.416000000    -2.088000000
H    -4.624000000     0.484000000    -2.619000000
C    -4.364000000    -1.910000000    -0.085000000
C    -3.665000000    -2.854000000    -0.786000000
H    -3.431000000    -3.742000000    -0.204000000
C    -3.428000000    -2.684000000    -2.138000000
O    -2.575000000    -3.528000000    -2.858000000
C    -1.163000000    -3.177000000    -2.797000000
C    -0.241000000    -4.218000000    -2.283000000
C    -0.681000000    -5.353000000    -1.618000000
H    -1.756000000    -5.442000000    -1.481000000
C     1.175000000    -4.187000000    -2.606000000
H     1.588000000    -3.341000000    -3.150000000
O    -0.709000000    -2.728000000    -4.045000000
H    -1.099000000    -2.228000000    -2.244000000
C    -3.739000000    -1.477000000    -2.771000000
C    -3.431000000    -1.242000000    -4.200000000
H    -4.075000000    -0.534000000    -4.727000000
H    -3.445000000    -2.191000000    -4.740000000
C    -2.001000000    -0.580000000    -4.371000000
C    -0.824000000    -1.375000000    -4.327000000
C     0.311000000    -0.680000000    -4.151000000
H     1.251000000    -1.161000000    -3.894000000
C     0.382000000     0.675000000    -4.262000000
O     1.653000000     1.269000000    -4.155000000
C     1.997000000     1.894000000    -2.895000000
H     1.327000000     1.505000000    -2.114000000
C     3.436000000     1.567000000    -2.467000000
C     4.215000000     2.543000000    -1.818000000
H     3.774000000     3.492000000    -1.522000000
C     3.927000000     0.218000000    -2.488000000
H     3.370000000    -0.587000000    -2.962000000
C     5.301000000    -0.029000000    -2.174000000
O     5.891000000    -1.221000000    -2.290000000
C     6.056000000     1.009000000    -1.629000000
H     7.109000000     0.808000000    -1.447000000
C     5.516000000     2.272000000    -1.413000000
O     6.317000000     3.220000000    -0.658000000
C     5.707000000     4.302000000    -0.057000000
C     5.139000000     4.219000000     1.195000000
H     5.231000000     3.284000000     1.740000000
C     5.694000000     5.522000000    -0.695000000
H     6.212000000     5.548000000    -1.650000000
C     5.170000000     6.687000000    -0.117000000
H     5.314000000     7.672000000    -0.552000000
C     4.672000000     6.609000000     1.205000000
H     4.330000000     7.459000000     1.789000000
C     4.673000000     5.371000000     1.847000000
O     4.050000000     5.380000000     3.084000000
C     2.870000000     4.794000000     3.434000000
C     2.717000000     4.203000000     4.629000000
H     3.500000000     4.218000000     5.383000000
C     1.552000000     3.520000000     4.870000000
O     1.398000000     2.718000000     6.000000000
C     0.312000000     1.920000000     6.189000000
C     0.343000000     0.584000000     5.900000000
H     1.238000000     0.223000000     5.399000000
C    -0.868000000     2.438000000     6.809000000
H    -0.924000000     3.485000000     7.095000000
C    -1.900000000     1.583000000     7.096000000
H    -2.862000000     1.920000000     7.474000000
C    -1.809000000     0.233000000     6.893000000
H    -2.664000000    -0.359000000     7.211000000
C    -0.648000000    -0.281000000     6.258000000
O    -0.456000000    -1.570000000     5.905000000
C    -1.270000000    -2.142000000     5.029000000
C    -1.008000000    -3.540000000     4.889000000
H    -0.322000000    -4.020000000     5.583000000
C    -1.687000000    -4.166000000     3.847000000
O    -1.635000000    -5.567000000     3.694000000
C    -1.966000000    -6.291000000     2.604000000
C    -0.993000000    -6.503000000     1.614000000
H     0.045000000    -6.190000000     1.693000000
C    -3.291000000    -6.638000000     2.290000000
H    -4.121000000    -6.342000000     2.926000000
C    -3.689000000    -7.312000000     1.127000000
H    -4.697000000    -7.654000000     0.905000000
C    -2.682000000    -7.575000000     0.233000000
H    -2.944000000    -8.046000000    -0.711000000
C    -1.333000000    -7.201000000     0.482000000
O    -0.406000000    -7.489000000    -0.521000000
C     0.145000000    -6.435000000    -1.266000000
C     1.453000000    -6.313000000    -1.450000000
H     2.081000000    -7.123000000    -1.087000000
C     1.997000000    -5.184000000    -2.104000000
O     3.355000000    -5.303000000    -2.392000000
C     4.107000000    -4.374000000    -3.064000000
C     4.180000000    -4.386000000    -4.462000000
H     3.522000000    -5.059000000    -5.004000000
C     4.907000000    -3.416000000    -5.158000000
H     4.772000000    -3.360000000    -6.235000000
C     5.498000000    -2.364000000    -4.370000000
H     5.929000000    -1.505000000    -4.877000000
C     5.344000000    -2.313000000    -2.977000000
C     4.761000000    -3.393000000    -2.307000000
H     4.548000000    -3.309000000    -1.244000000
C     1.533000000    -0.845000000     2.384000000
H     1.720000000    -0.637000000     3.434000000
C     0.585000000     0.046000000     1.775000000
H     0.205000000     0.802000000     2.458000000
C     0.227000000    -0.172000000     0.405000000
C    -0.795000000     0.615000000    -0.360000000
H    -0.451000000     1.466000000    -0.951000000
H    -1.058000000    -0.114000000    -1.129000000
H    -1.637000000     0.772000000     0.318000000
C     0.916000000    -1.124000000    -0.316000000
H     0.712000000    -1.343000000    -1.361000000
C     1.914000000    -1.897000000     0.356000000
H     2.442000000    -2.624000000    -0.255000000
C     2.162000000    -1.817000000     1.665000000
C     3.219000000    -2.645000000     2.271000000
O     3.992000000    -3.285000000     1.645000000
O     3.279000000    -2.651000000     3.507000000
O     5.190000000    -4.418000000     4.431000000
H     4.657000000    -3.731000000     4.031000000
H     5.241000000    -5.101000000     3.762000000
O     8.123000000    -5.339000000     0.604000000
H     8.005000000    -4.539000000     0.091000000
H     8.776000000    -5.842000000     0.118000000
O     4.960000000    -0.923000000     7.000000000
H     4.773000000    -0.474000000     7.824000000
H     5.915000000    -0.967000000     6.963000000
O     8.426000000    -3.670000000     3.637000000
H     7.740000000    -3.154000000     3.214000000
H     8.773000000    -4.226000000     2.940000000
O     6.308000000    -2.343000000     2.336000000
H     5.894000000    -1.692000000     2.903000000
H     5.593000000    -2.679000000     1.795000000
O     0.440000000    -8.499000000     3.917000000
H     0.185000000    -8.000000000     4.693000000
H     0.778000000    -7.841000000     3.309000000
O     2.383000000    -7.263000000     5.859000000
H     1.610000000    -7.212000000     6.420000000
H     2.636000000    -6.351000000     5.714000000
O     4.965000000    -5.159000000     7.781000000
H     4.702000000    -5.146000000     6.861000000
H     5.871000000    -4.852000000     7.775000000
O     1.442000000    -2.758000000     8.305000000
H     2.187000000    -2.724000000     8.906000000
H     1.785000000    -2.418000000     7.479000000
O     8.334000000    -0.817000000     0.992000000
H     8.412000000    -1.552000000     0.385000000
H     7.806000000    -1.157000000     1.715000000
O     6.844000000     1.491000000     4.043000000
H     6.539000000     1.965000000     4.816000000
H     6.302000000     0.702000000     4.016000000
O     2.229000000    -4.694000000     4.969000000
H     2.696000000    -4.233000000     4.272000000
H     2.018000000    -4.014000000     5.608000000
O     4.432000000    -8.058000000    -0.539000000
H     4.343000000    -7.150000000    -0.249000000
H     5.266000000    -8.347000000    -0.170000000
O     7.634000000    -4.956000000     6.110000000
H     7.400000000    -4.576000000     5.263000000
H     7.680000000    -4.207000000     6.704000000
O     2.371000000    -6.782000000     2.888000000
H     3.209000000    -6.413000000     2.609000000
H     2.335000000    -6.611000000     3.829000000
O     2.799000000    -1.989000000     6.060000000
H     2.822000000    -1.967000000     5.104000000
H     3.653000000    -1.649000000     6.328000000
O     7.714000000    -2.839000000    -0.836000000
H     6.815000000    -2.511000000    -0.808000000
H     7.979000000    -2.734000000    -1.750000000
O     5.172000000    -0.677000000     4.226000000
H     4.430000000    -1.184000000     3.898000000
H     5.053000000    -0.666000000     5.176000000
O     4.667000000    -5.722000000     1.699000000
H     5.552000000    -5.628000000     1.348000000
H     4.345000000    -4.824000000     1.782000000
