218
-1466.37453
C     0.018000000     3.206000000     4.090000000
H    -1.012000000     2.936000000     4.305000000
C     0.423000000     3.579000000     2.769000000
C     1.747000000     3.756000000     2.473000000
H     2.040000000     3.826000000     1.429000000
C    -0.639000000     3.790000000     1.713000000
O    -1.893000000     3.833000000     2.278000000
H    -0.529000000     2.930000000     1.035000000
O    -0.336000000     4.914000000     0.966000000
C    -0.386000000     4.674000000    -0.390000000
C     0.765000000     4.424000000    -1.059000000
H     1.745000000     4.474000000    -0.593000000
C     0.720000000     3.967000000    -2.376000000
O     1.943000000     3.550000000    -2.983000000
C    -0.532000000     3.779000000    -3.017000000
C    -0.477000000     3.198000000    -4.417000000
H    -1.379000000     3.578000000    -4.901000000
C    -0.453000000     1.717000000    -4.329000000
C    -1.647000000     0.985000000    -4.463000000
H    -2.566000000     1.550000000    -4.602000000
H     0.256000000     3.606000000    -5.116000000
C    -1.733000000     4.045000000    -2.367000000
H    -2.703000000     3.817000000    -2.803000000
C    -1.636000000     4.464000000    -0.990000000
C    -2.905000000     4.776000000    -0.232000000
H    -3.557000000     5.188000000    -1.005000000
H    -2.770000000     5.601000000     0.471000000
C    -3.402000000     3.455000000     0.409000000
C    -4.273000000     2.632000000    -0.246000000
H    -4.645000000     3.025000000    -1.189000000
C    -2.893000000     3.123000000     1.701000000
C    -3.395000000     1.988000000     2.241000000
H    -3.083000000     1.717000000     3.246000000
C    -4.238000000     1.110000000     1.546000000
O    -4.344000000    -0.145000000     2.173000000
C    -3.600000000    -1.253000000     1.677000000
C    -3.203000000    -2.185000000     2.786000000
C    -3.268000000    -3.560000000     2.626000000
H    -3.708000000    -4.118000000     1.804000000
C    -2.457000000    -1.586000000     3.811000000
H    -2.435000000    -0.504000000     3.911000000
O    -4.505000000    -1.890000000     0.823000000
H    -2.751000000    -0.815000000     1.132000000
C    -4.718000000     1.428000000     0.267000000
C    -5.619000000     0.527000000    -0.543000000
H    -6.205000000     1.044000000    -1.305000000
H    -6.359000000     0.092000000     0.133000000
C    -4.816000000    -0.670000000    -1.134000000
C    -4.371000000    -0.511000000    -2.467000000
H    -4.625000000     0.416000000    -2.973000000
C    -4.317000000    -1.758000000    -0.492000000
C    -3.634000000    -2.752000000    -1.122000000
H    -3.250000000    -3.660000000    -0.664000000
C    -3.093000000    -2.516000000    -2.377000000
O    -2.142000000    -3.400000000    -2.837000000
C    -0.830000000    -2.896000000    -2.729000000
C     0.105000000    -3.957000000    -2.186000000
C    -0.310000000    -4.976000000    -1.299000000
H    -1.338000000    -5.041000000    -0.952000000
C     1.487000000    -3.870000000    -2.487000000
H     1.898000000    -3.065000000    -3.091000000
O    -0.419000000    -2.391000000    -4.008000000
H    -0.869000000    -2.111000000    -1.959000000
C    -3.510000000    -1.432000000    -3.117000000
C    -2.973000000    -1.221000000    -4.543000000
H    -3.688000000    -0.605000000    -5.093000000
H    -2.811000000    -2.218000000    -4.958000000
C    -1.617000000    -0.430000000    -4.404000000
C    -0.402000000    -1.067000000    -4.272000000
C     0.775000000    -0.407000000    -4.237000000
H     1.749000000    -0.890000000    -4.272000000
C     0.719000000     0.988000000    -4.171000000
O     1.933000000     1.626000000    -4.096000000
C     2.291000000     2.189000000    -2.816000000
H     1.720000000     1.642000000    -2.051000000
C     3.705000000     2.005000000    -2.477000000
C     4.476000000     3.007000000    -1.855000000
H     3.957000000     3.904000000    -1.529000000
C     4.254000000     0.762000000    -2.759000000
H     3.636000000     0.028000000    -3.269000000
C     5.585000000     0.554000000    -2.463000000
O     6.290000000    -0.621000000    -2.771000000
C     6.366000000     1.531000000    -1.862000000
H     7.379000000     1.362000000    -1.506000000
C     5.801000000     2.739000000    -1.585000000
O     6.530000000     3.685000000    -0.915000000
C     5.884000000     4.326000000     0.094000000
C     5.317000000     3.556000000     1.148000000
H     5.423000000     2.475000000     1.190000000
C     5.644000000     5.685000000    -0.020000000
H     6.051000000     6.301000000    -0.818000000
C     4.842000000     6.360000000     0.885000000
H     4.664000000     7.426000000     0.771000000
C     4.257000000     5.571000000     1.873000000
H     3.724000000     6.186000000     2.593000000
C     4.581000000     4.167000000     2.060000000
O     4.012000000     3.601000000     3.172000000
C     2.679000000     3.626000000     3.476000000
C     2.285000000     3.439000000     4.835000000
H     3.046000000     3.316000000     5.602000000
C     0.937000000     3.215000000     5.147000000
O     0.510000000     2.743000000     6.337000000
C    -0.472000000     1.801000000     6.551000000
C    -0.274000000     0.485000000     6.105000000
H     0.653000000     0.372000000     5.549000000
C    -1.610000000     2.137000000     7.285000000
H    -1.787000000     3.102000000     7.752000000
C    -2.552000000     1.125000000     7.607000000
H    -3.422000000     1.278000000     8.241000000
C    -2.362000000    -0.179000000     7.038000000
H    -2.985000000    -1.018000000     7.339000000
C    -1.243000000    -0.495000000     6.273000000
O    -1.083000000    -1.757000000     5.804000000
C    -1.920000000    -2.369000000     4.810000000
C    -1.954000000    -3.789000000     4.605000000
H    -1.536000000    -4.302000000     5.467000000
C    -2.652000000    -4.347000000     3.620000000
O    -2.856000000    -5.726000000     3.554000000
C    -2.479000000    -6.430000000     2.482000000
C    -1.188000000    -6.342000000     1.892000000
H    -0.427000000    -5.663000000     2.268000000
C    -3.469000000    -7.171000000     1.816000000
H    -4.451000000    -7.156000000     2.282000000
C    -3.163000000    -7.840000000     0.680000000
H    -3.969000000    -8.345000000     0.153000000
C    -1.931000000    -7.805000000     0.058000000
H    -1.644000000    -8.289000000    -0.872000000
C    -0.947000000    -6.994000000     0.667000000
O     0.249000000    -6.887000000     0.054000000
C     0.584000000    -5.922000000    -0.837000000
C     1.899000000    -5.817000000    -1.120000000
H     2.529000000    -6.606000000    -0.715000000
C     2.375000000    -4.770000000    -1.842000000
O     3.771000000    -4.532000000    -1.943000000
C     4.368000000    -3.741000000    -2.863000000
C     4.490000000    -4.123000000    -4.206000000
H     4.055000000    -5.015000000    -4.650000000
C     5.250000000    -3.358000000    -5.076000000
H     5.315000000    -3.560000000    -6.142000000
C     5.870000000    -2.173000000    -4.635000000
H     6.502000000    -1.565000000    -5.278000000
C     5.639000000    -1.726000000    -3.343000000
C     4.966000000    -2.527000000    -2.426000000
H     4.971000000    -2.170000000    -1.399000000
C     0.789000000    -0.532000000     2.431000000
H     0.824000000    -0.404000000     3.510000000
C    -0.226000000     0.009000000     1.608000000
H    -1.058000000     0.542000000     2.061000000
C    -0.050000000     0.075000000     0.217000000
C    -1.025000000     0.722000000    -0.666000000
H    -1.012000000     1.781000000    -0.398000000
H    -0.764000000     0.723000000    -1.727000000
H    -2.046000000     0.336000000    -0.646000000
C     1.048000000    -0.573000000    -0.366000000
H     1.062000000    -0.475000000    -1.448000000
C     2.083000000    -1.148000000     0.360000000
H     2.868000000    -1.643000000    -0.206000000
C     1.934000000    -1.127000000     1.746000000
C     3.078000000    -1.612000000     2.591000000
O     3.964000000    -2.270000000     2.104000000
O     3.301000000    -1.089000000     3.724000000
O     5.490000000    -3.103000000     4.576000000
H     4.694000000    -2.739000000     4.188000000
H     6.175000000    -2.923000000     3.932000000
O     7.785000000    -2.399000000    -0.413000000
H     8.142000000    -3.236000000    -0.117000000
H     8.184000000    -2.259000000    -1.272000000
O     2.779000000    -0.475000000     8.061000000
H     2.285000000     0.236000000     8.469000000
H     3.583000000    -0.534000000     8.577000000
O     8.274000000    -0.068000000     6.270000000
H     7.768000000     0.314000000     5.554000000
H     7.803000000    -0.871000000     6.495000000
O     5.828000000    -0.545000000     0.708000000
H     6.335000000    -1.243000000     0.292000000
H     5.059000000    -0.989000000     1.067000000
O     8.656000000    -0.167000000     2.023000000
H     8.091000000     0.057000000     2.763000000
H     8.059000000    -0.531000000     1.369000000
O     1.142000000    -4.649000000     5.579000000
H     1.942000000    -4.925000000     5.132000000
H     1.148000000    -3.694000000     5.513000000
O     6.788000000    -2.185000000     6.913000000
H     6.681000000    -2.824000000     7.617000000
H     6.197000000    -2.487000000     6.223000000
O     5.635000000    -5.546000000     5.438000000
H     4.779000000    -5.860000000     5.146000000
H     5.639000000    -4.616000000     5.211000000
O     0.056000000    -2.985000000     7.955000000
H     0.967000000    -3.014000000     7.663000000
H    -0.404000000    -2.520000000     7.256000000
O     5.672000000     2.335000000     5.768000000
H     6.295000000     2.205000000     5.053000000
H     4.948000000     1.742000000     5.567000000
O     3.254000000    -5.180000000     3.567000000
H     3.576000000    -4.632000000     2.852000000
H     3.589000000    -6.054000000     3.369000000
O     7.624000000    -2.906000000     2.802000000
H     8.422000000    -3.230000000     3.221000000
H     7.489000000    -3.493000000     2.058000000
O     5.378000000     0.665000000     3.478000000
H     5.267000000     0.735000000     2.530000000
H     4.784000000    -0.039000000     3.737000000
O     4.149000000    -7.332000000     1.733000000
H     3.979000000    -6.549000000     1.210000000
H     4.081000000    -8.056000000     1.110000000
O     2.273000000    -2.294000000     6.276000000
H     2.808000000    -2.036000000     5.525000000
H     2.339000000    -1.556000000     6.882000000
O     5.345000000    -4.620000000     8.004000000
H     5.126000000    -5.447000000     8.433000000
H     5.783000000    -4.879000000     7.193000000
O     3.585000000     0.589000000     5.631000000
H     3.639000000    -0.081000000     4.950000000
H     2.769000000     0.396000000     6.092000000
O     4.079000000    -4.633000000     1.003000000
H     3.876000000    -4.459000000     0.084000000
H     3.998000000    -3.781000000     1.432000000
