218
-1463.71444
C    -0.565000000     3.237000000     4.525000000
H    -1.646000000     3.316000000     4.601000000
C     0.034000000     3.581000000     3.360000000
C     1.433000000     3.696000000     3.311000000
H     1.953000000     3.880000000     2.375000000
C    -0.755000000     3.773000000     2.154000000
O    -2.130000000     4.149000000     2.354000000
H    -0.793000000     2.806000000     1.630000000
O    -0.140000000     4.669000000     1.199000000
C    -0.132000000     4.336000000    -0.086000000
C     1.118000000     3.973000000    -0.551000000
H     2.015000000     3.950000000     0.062000000
C     1.265000000     3.734000000    -1.929000000
O     2.499000000     3.441000000    -2.358000000
C     0.180000000     3.832000000    -2.849000000
C     0.316000000     3.519000000    -4.339000000
H    -0.465000000     4.060000000    -4.878000000
C     0.093000000     2.023000000    -4.501000000
C    -1.112000000     1.411000000    -4.744000000
H    -1.997000000     2.041000000    -4.784000000
H     1.264000000     3.936000000    -4.683000000
C    -1.025000000     4.257000000    -2.309000000
H    -1.920000000     4.400000000    -2.909000000
C    -1.146000000     4.614000000    -0.953000000
C    -2.461000000     5.182000000    -0.395000000
H    -3.106000000     5.563000000    -1.190000000
H    -2.434000000     5.962000000     0.369000000
C    -3.221000000     3.995000000     0.193000000
C    -4.064000000     3.246000000    -0.589000000
H    -4.272000000     3.590000000    -1.599000000
C    -3.012000000     3.571000000     1.546000000
C    -3.644000000     2.431000000     2.047000000
H    -3.469000000     2.093000000     3.064000000
C    -4.318000000     1.603000000     1.229000000
O    -4.628000000     0.429000000     1.823000000
C    -3.850000000    -0.679000000     1.249000000
C    -3.526000000    -1.722000000     2.337000000
C    -3.703000000    -3.107000000     2.036000000
H    -3.983000000    -3.578000000     1.097000000
C    -2.932000000    -1.373000000     3.545000000
H    -2.842000000    -0.320000000     3.799000000
O    -4.621000000    -1.337000000     0.171000000
H    -2.905000000    -0.290000000     0.842000000
C    -4.557000000     2.022000000    -0.125000000
C    -5.313000000     1.118000000    -1.144000000
H    -5.599000000     1.801000000    -1.947000000
H    -6.217000000     0.721000000    -0.676000000
C    -4.423000000     0.083000000    -1.851000000
C    -3.989000000     0.197000000    -3.136000000
H    -4.247000000     1.090000000    -3.700000000
C    -4.126000000    -1.131000000    -1.093000000
C    -3.382000000    -2.156000000    -1.666000000
H    -3.205000000    -3.003000000    -1.009000000
C    -2.922000000    -1.971000000    -2.965000000
O    -2.103000000    -2.956000000    -3.494000000
C    -0.680000000    -2.728000000    -3.197000000
C     0.082000000    -3.910000000    -2.723000000
C    -0.395000000    -4.816000000    -1.790000000
H    -1.440000000    -4.873000000    -1.495000000
C     1.468000000    -3.765000000    -2.835000000
H     1.889000000    -2.843000000    -3.227000000
O    -0.197000000    -2.156000000    -4.427000000
H    -0.579000000    -1.947000000    -2.429000000
C    -3.211000000    -0.822000000    -3.716000000
C    -2.605000000    -0.604000000    -5.063000000
H    -3.227000000     0.064000000    -5.663000000
H    -2.643000000    -1.573000000    -5.565000000
C    -1.246000000     0.007000000    -4.889000000
C    -0.124000000    -0.810000000    -4.632000000
C     1.104000000    -0.166000000    -4.370000000
H     1.924000000    -0.789000000    -4.025000000
C     1.259000000     1.214000000    -4.442000000
O     2.486000000     1.794000000    -4.098000000
C     2.733000000     2.080000000    -2.702000000
H     2.010000000     1.554000000    -2.060000000
C     4.137000000     1.611000000    -2.323000000
C     4.671000000     2.116000000    -1.115000000
H     4.096000000     2.812000000    -0.509000000
C     4.901000000     0.709000000    -3.069000000
H     4.435000000     0.299000000    -3.962000000
C     6.037000000     0.155000000    -2.545000000
O     6.732000000    -0.789000000    -3.239000000
C     6.595000000     0.724000000    -1.419000000
H     7.567000000     0.378000000    -1.077000000
C     5.858000000     1.604000000    -0.675000000
O     6.335000000     2.057000000     0.489000000
C     5.777000000     2.987000000     1.404000000
C     5.017000000     2.539000000     2.484000000
H     5.068000000     1.472000000     2.682000000
C     5.902000000     4.342000000     1.165000000
H     6.478000000     4.687000000     0.310000000
C     5.314000000     5.273000000     2.011000000
H     5.357000000     6.334000000     1.779000000
C     4.603000000     4.842000000     3.172000000
H     4.045000000     5.586000000     3.735000000
C     4.478000000     3.474000000     3.418000000
O     3.595000000     3.041000000     4.417000000
C     2.200000000     3.240000000     4.439000000
C     1.506000000     2.725000000     5.513000000
H     2.007000000     2.351000000     6.402000000
C     0.163000000     2.843000000     5.609000000
O    -0.521000000     2.399000000     6.711000000
C    -1.541000000     1.582000000     6.676000000
C    -1.338000000     0.312000000     6.142000000
H    -0.391000000     0.071000000     5.665000000
C    -2.768000000     2.013000000     7.168000000
H    -2.815000000     3.004000000     7.613000000
C    -3.781000000     1.088000000     7.223000000
H    -4.711000000     1.382000000     7.701000000
C    -3.663000000    -0.219000000     6.691000000
H    -4.444000000    -0.918000000     6.980000000
C    -2.436000000    -0.596000000     6.147000000
O    -2.183000000    -1.891000000     5.710000000
C    -2.634000000    -2.295000000     4.522000000
C    -2.829000000    -3.638000000     4.254000000
H    -2.761000000    -4.336000000     5.084000000
C    -3.317000000    -4.044000000     3.019000000
O    -3.639000000    -5.364000000     2.817000000
C    -3.049000000    -6.187000000     1.925000000
C    -1.812000000    -5.791000000     1.395000000
H    -1.159000000    -4.993000000     1.741000000
C    -3.777000000    -7.239000000     1.357000000
H    -4.812000000    -7.350000000     1.667000000
C    -3.165000000    -7.991000000     0.410000000
H    -3.752000000    -8.842000000     0.075000000
C    -1.904000000    -7.629000000    -0.129000000
H    -1.379000000    -8.176000000    -0.908000000
C    -1.159000000    -6.544000000     0.440000000
O     0.104000000    -6.316000000    -0.052000000
C     0.521000000    -5.700000000    -1.213000000
C     1.831000000    -5.715000000    -1.507000000
H     2.576000000    -6.295000000    -0.970000000
C     2.354000000    -4.636000000    -2.266000000
O     3.642000000    -4.202000000    -2.045000000
C     4.537000000    -3.743000000    -2.969000000
C     5.135000000    -4.629000000    -3.835000000
H     4.842000000    -5.667000000    -3.972000000
C     6.265000000    -4.173000000    -4.586000000
H     6.733000000    -4.852000000    -5.295000000
C     6.783000000    -2.852000000    -4.462000000
H     7.716000000    -2.569000000    -4.943000000
C     6.164000000    -1.997000000    -3.560000000
C     5.093000000    -2.483000000    -2.759000000
H     4.716000000    -1.989000000    -1.867000000
C     1.288000000    -0.557000000     2.519000000
H     1.060000000    -0.508000000     3.580000000
C     0.382000000     0.011000000     1.666000000
H    -0.509000000     0.428000000     2.130000000
C     0.580000000     0.070000000     0.271000000
C    -0.513000000     0.571000000    -0.616000000
H    -1.200000000    -0.248000000    -0.836000000
H    -1.035000000     1.312000000    -0.007000000
H    -0.167000000     1.027000000    -1.546000000
C     1.620000000    -0.638000000    -0.250000000
H     1.799000000    -0.695000000    -1.321000000
C     2.574000000    -1.154000000     0.614000000
H     3.337000000    -1.746000000     0.116000000
C     2.442000000    -1.151000000     2.029000000
C     3.475000000    -1.729000000     2.924000000
O     4.488000000    -2.225000000     2.505000000
O     3.278000000    -1.823000000     4.102000000
O     6.240000000    -4.407000000     2.340000000
H     5.718000000    -3.619000000     2.191000000
H     7.144000000    -4.095000000     2.365000000
O     3.084000000    -0.730000000     7.841000000
H     2.662000000    -0.487000000     8.665000000
H     3.822000000    -1.281000000     8.103000000
O     7.465000000    -2.204000000     4.367000000
H     8.211000000    -2.752000000     4.611000000
H     6.724000000    -2.584000000     4.839000000
O     6.485000000    -1.531000000     1.012000000
H     6.458000000    -2.282000000     0.419000000
H     5.700000000    -1.625000000     1.552000000
O     8.137000000     0.355000000     1.932000000
H     7.833000000     0.510000000     2.826000000
H     7.456000000    -0.190000000     1.538000000
O     1.142000000    -4.743000000     4.731000000
H     1.376000000    -4.888000000     3.814000000
H     1.021000000    -3.796000000     4.800000000
O     5.096000000    -3.728000000     4.994000000
H     5.490000000    -4.238000000     4.286000000
H     4.470000000    -3.152000000     4.555000000
O     7.190000000    -6.614000000     4.188000000
H     6.925000000    -6.118000000     3.413000000
H     6.369000000    -6.948000000     4.550000000
O     3.002000000    -4.991000000     6.765000000
H     2.108000000    -4.894000000     6.436000000
H     3.511000000    -4.350000000     6.269000000
O    -0.432000000    -3.046000000     7.440000000
H     0.353000000    -2.754000000     6.977000000
H    -1.156000000    -2.789000000     6.870000000
O     1.957000000    -5.600000000     2.048000000
H     2.808000000    -5.747000000     1.636000000
H     1.385000000    -5.335000000     1.327000000
O     7.322000000     0.410000000     4.599000000
H     7.643000000    -0.488000000     4.517000000
H     6.420000000     0.315000000     4.902000000
O     4.531000000     3.010000000     7.318000000
H     5.207000000     3.420000000     6.778000000
H     3.990000000     2.524000000     6.695000000
O     6.583000000    -3.922000000    -0.713000000
H     6.581000000    -4.879000000    -0.702000000
H     6.318000000    -3.692000000    -1.604000000
O     5.206000000    -2.268000000     8.003000000
H     4.994000000    -3.111000000     8.404000000
H     5.099000000    -2.417000000     7.063000000
O     4.461000000    -7.203000000     4.882000000
H     4.023000000    -7.774000000     5.513000000
H     4.178000000    -6.320000000     5.120000000
O     1.323000000    -1.900000000     5.925000000
H     1.897000000    -1.799000000     5.166000000
H     1.741000000    -1.380000000     6.612000000
O     4.939000000    -0.511000000     5.665000000
H     4.798000000    -1.203000000     5.019000000
H     4.081000000    -0.383000000     6.070000000
O     4.619000000    -5.945000000     0.996000000
H     5.159000000    -5.264000000     1.398000000
H     5.172000000    -6.315000000     0.309000000
