218
-1456.32476
C    -0.012000000     1.873000000     4.086000000
H    -0.982000000     1.418000000     3.902000000
C     0.425000000     3.007000000     3.281000000
C     1.724000000     3.593000000     3.496000000
H     2.094000000     4.342000000     2.801000000
C    -0.588000000     3.494000000     2.180000000
O    -1.975000000     3.462000000     2.687000000
H    -0.478000000     2.764000000     1.365000000
O    -0.218000000     4.721000000     1.579000000
C    -0.096000000     4.641000000     0.268000000
C     1.186000000     4.363000000    -0.224000000
H     2.027000000     4.122000000     0.420000000
C     1.340000000     4.139000000    -1.577000000
O     2.524000000     3.676000000    -2.072000000
C     0.247000000     4.275000000    -2.466000000
C     0.422000000     4.039000000    -3.955000000
H    -0.296000000     4.644000000    -4.515000000
C     0.261000000     2.559000000    -4.244000000
C    -0.966000000     2.001000000    -4.578000000
H    -1.836000000     2.644000000    -4.677000000
H     1.392000000     4.418000000    -4.284000000
C    -1.083000000     4.477000000    -1.980000000
H    -1.950000000     4.548000000    -2.633000000
C    -1.221000000     4.722000000    -0.593000000
C    -2.598000000     4.949000000     0.075000000
H    -3.240000000     5.358000000    -0.708000000
H    -2.600000000     5.697000000     0.870000000
C    -3.240000000     3.641000000     0.597000000
C    -4.158000000     2.957000000    -0.234000000
H    -4.244000000     3.197000000    -1.291000000
C    -2.916000000     3.052000000     1.837000000
C    -3.535000000     1.904000000     2.338000000
H    -3.289000000     1.449000000     3.294000000
C    -4.461000000     1.259000000     1.509000000
O    -4.796000000    -0.050000000     1.910000000
C    -4.112000000    -1.160000000     1.197000000
C    -3.779000000    -2.270000000     2.164000000
C    -3.842000000    -3.598000000     1.730000000
H    -4.128000000    -3.849000000     0.711000000
C    -3.362000000    -2.010000000     3.495000000
H    -3.410000000    -0.998000000     3.887000000
O    -4.883000000    -1.558000000     0.087000000
H    -3.144000000    -0.842000000     0.784000000
C    -4.765000000     1.814000000     0.188000000
C    -5.542000000     1.085000000    -0.816000000
H    -5.969000000     1.836000000    -1.484000000
H    -6.371000000     0.428000000    -0.544000000
C    -4.628000000     0.168000000    -1.615000000
C    -4.099000000     0.568000000    -2.837000000
H    -4.229000000     1.536000000    -3.315000000
C    -4.331000000    -1.116000000    -1.153000000
C    -3.535000000    -1.958000000    -1.876000000
H    -3.149000000    -2.830000000    -1.354000000
C    -2.996000000    -1.589000000    -3.056000000
O    -2.105000000    -2.500000000    -3.626000000
C    -0.671000000    -2.251000000    -3.375000000
C     0.090000000    -3.451000000    -2.897000000
C    -0.591000000    -4.568000000    -2.430000000
H    -1.661000000    -4.761000000    -2.431000000
C     1.507000000    -3.345000000    -2.751000000
H     2.048000000    -2.468000000    -3.097000000
O    -0.051000000    -1.671000000    -4.529000000
H    -0.588000000    -1.524000000    -2.554000000
C    -3.238000000    -0.278000000    -3.577000000
C    -2.588000000     0.106000000    -4.880000000
H    -3.242000000     0.837000000    -5.362000000
H    -2.499000000    -0.781000000    -5.510000000
C    -1.113000000     0.613000000    -4.701000000
C    -0.008000000    -0.268000000    -4.611000000
C     1.213000000     0.292000000    -4.379000000
H     2.066000000    -0.381000000    -4.417000000
C     1.324000000     1.648000000    -4.070000000
O     2.596000000     2.014000000    -3.695000000
C     2.750000000     2.276000000    -2.285000000
H     2.045000000     1.666000000    -1.702000000
C     4.184000000     1.868000000    -1.839000000
C     4.714000000     2.470000000    -0.642000000
H     4.033000000     3.142000000    -0.126000000
C     4.792000000     0.670000000    -2.314000000
H     4.362000000     0.109000000    -3.140000000
C     5.988000000     0.284000000    -1.780000000
O     6.685000000    -0.803000000    -2.254000000
C     6.628000000     1.033000000    -0.792000000
H     7.634000000     0.787000000    -0.462000000
C     6.017000000     2.109000000    -0.215000000
O     6.614000000     2.805000000     0.828000000
C     6.008000000     3.613000000     1.740000000
C     5.086000000     3.228000000     2.678000000
H     4.726000000     2.207000000     2.774000000
C     6.435000000     4.946000000     1.752000000
H     7.137000000     5.329000000     1.017000000
C     6.014000000     5.855000000     2.736000000
H     6.367000000     6.882000000     2.789000000
C     5.156000000     5.450000000     3.724000000
H     4.871000000     6.125000000     4.527000000
C     4.641000000     4.176000000     3.635000000
O     3.788000000     3.648000000     4.643000000
C     2.567000000     3.090000000     4.472000000
C     2.117000000     2.102000000     5.347000000
H     2.656000000     1.829000000     6.250000000
C     0.857000000     1.493000000     5.090000000
O     0.482000000     0.429000000     5.933000000
C    -0.762000000     0.046000000     6.311000000
C    -1.140000000    -1.210000000     5.940000000
H    -0.399000000    -1.890000000     5.527000000
C    -1.738000000     0.927000000     6.777000000
H    -1.490000000     1.927000000     7.124000000
C    -3.015000000     0.512000000     6.977000000
H    -3.622000000     1.268000000     7.469000000
C    -3.412000000    -0.769000000     6.590000000
H    -4.450000000    -1.068000000     6.704000000
C    -2.439000000    -1.653000000     6.112000000
O    -2.825000000    -2.844000000     5.676000000
C    -3.098000000    -3.083000000     4.357000000
C    -3.102000000    -4.364000000     3.812000000
H    -2.856000000    -5.175000000     4.493000000
C    -3.496000000    -4.687000000     2.527000000
O    -3.660000000    -6.035000000     2.201000000
C    -3.403000000    -6.517000000     0.893000000
C    -2.230000000    -6.268000000     0.313000000
H    -1.470000000    -5.823000000     0.950000000
C    -4.360000000    -7.191000000     0.222000000
H    -5.327000000    -7.324000000     0.701000000
C    -4.086000000    -7.627000000    -1.058000000
H    -4.796000000    -8.220000000    -1.630000000
C    -2.832000000    -7.422000000    -1.610000000
H    -2.648000000    -7.797000000    -2.614000000
C    -1.867000000    -6.733000000    -0.890000000
O    -0.536000000    -6.700000000    -1.360000000
C     0.139000000    -5.638000000    -1.980000000
C     1.563000000    -5.533000000    -1.875000000
H     2.108000000    -6.299000000    -1.329000000
C     2.246000000    -4.377000000    -2.204000000
O     3.669000000    -4.460000000    -2.089000000
C     4.510000000    -3.655000000    -2.825000000
C     4.811000000    -3.852000000    -4.169000000
H     4.275000000    -4.646000000    -4.682000000
C     5.698000000    -3.058000000    -4.875000000
H     6.014000000    -3.236000000    -5.900000000
C     6.338000000    -2.039000000    -4.159000000
H     7.078000000    -1.412000000    -4.649000000
C     6.096000000    -1.864000000    -2.797000000
C     5.109000000    -2.650000000    -2.092000000
H     4.934000000    -2.653000000    -1.020000000
C     0.120000000    -1.086000000     2.288000000
H    -0.165000000    -1.239000000     3.326000000
C    -0.441000000    -0.085000000     1.531000000
H    -1.283000000     0.458000000     1.953000000
C    -0.137000000    -0.006000000     0.202000000
C    -0.838000000     0.960000000    -0.697000000
H    -0.190000000     1.824000000    -0.856000000
H    -1.096000000     0.505000000    -1.656000000
H    -1.719000000     1.394000000    -0.219000000
C     0.958000000    -0.670000000    -0.310000000
H     1.270000000    -0.581000000    -1.348000000
C     1.679000000    -1.587000000     0.517000000
H     2.426000000    -2.259000000     0.103000000
C     1.223000000    -1.861000000     1.853000000
C     1.802000000    -2.890000000     2.807000000
O     2.814000000    -3.552000000     2.489000000
O     1.392000000    -3.059000000     3.918000000
O     7.214000000    -3.474000000     3.423000000
H     7.005000000    -2.593000000     3.113000000
H     7.121000000    -3.423000000     4.374000000
O     3.752000000    -0.027000000     3.013000000
H     3.593000000    -0.229000000     3.935000000
H     2.896000000    -0.123000000     2.596000000
O     6.686000000    -0.526000000     3.010000000
H     6.928000000    -0.244000000     2.128000000
H     5.732000000    -0.457000000     3.031000000
O     0.263000000    -5.497000000     4.170000000
H     1.184000000    -5.757000000     4.161000000
H     0.275000000    -4.561000000     3.970000000
O     2.955000000    -6.307000000     4.889000000
H     3.448000000    -6.499000000     5.687000000
H     3.318000000    -5.477000000     4.578000000
O     5.490000000    -6.636000000     3.114000000
H     5.325000000    -5.831000000     2.623000000
H     4.799000000    -7.235000000     2.832000000
O     2.674000000    -9.141000000     3.519000000
H     2.136000000    -9.069000000     2.730000000
H     2.759000000    -8.240000000     3.832000000
O     0.032000000    -7.203000000     7.094000000
H     0.257000000    -7.021000000     8.006000000
H    -0.329000000    -6.379000000     6.767000000
O    -1.137000000    -4.664000000     6.503000000
H    -1.751000000    -3.934000000     6.422000000
H    -0.750000000    -4.749000000     5.631000000
O     6.422000000    -5.551000000    -0.592000000
H     5.888000000    -5.218000000     0.129000000
H     6.130000000    -6.455000000    -0.709000000
O     2.105000000    -1.200000000     8.141000000
H     2.517000000    -1.122000000     9.001000000
H     1.267000000    -0.747000000     8.235000000
O     3.183000000    -6.106000000     1.315000000
H     3.765000000    -5.791000000     0.624000000
H     2.835000000    -5.310000000     1.717000000
O    -0.631000000    -8.167000000     3.626000000
H    -0.453000000    -7.260000000     3.876000000
H    -1.418000000    -8.400000000     4.117000000
O     6.175000000    -3.272000000     6.001000000
H     5.808000000    -3.734000000     6.754000000
H     5.410000000    -2.971000000     5.510000000
O     3.406000000    -4.985000000     8.271000000
H     2.816000000    -4.485000000     7.708000000
H     4.226000000    -4.492000000     8.256000000
O     3.946000000    -0.663000000     5.615000000
H     3.236000000    -1.304000000     5.592000000
H     3.903000000    -0.289000000     6.495000000
O     1.020000000    -8.326000000     1.382000000
H     1.416000000    -7.460000000     1.481000000
H     0.442000000    -8.413000000     2.140000000
O     2.446000000    -3.164000000     6.456000000
H     2.129000000    -3.041000000     5.561000000
H     1.940000000    -2.541000000     6.977000000
O     5.228000000    -4.190000000     1.809000000
H     5.773000000    -3.827000000     2.507000000
H     4.356000000    -3.833000000     1.976000000
