218
-1485.56866
C    -0.538000000     1.368000000     4.287000000
H    -1.334000000     0.690000000     3.989000000
C    -0.515000000     2.623000000     3.666000000
C     0.571000000     3.494000000     3.902000000
H     0.771000000     4.448000000     3.421000000
C    -1.495000000     2.913000000     2.521000000
O    -2.871000000     2.740000000     2.891000000
H    -1.213000000     2.218000000     1.716000000
O    -1.413000000     4.301000000     2.045000000
C    -1.426000000     4.504000000     0.695000000
C    -0.199000000     4.745000000     0.197000000
H     0.650000000     4.952000000     0.844000000
C    -0.036000000     4.745000000    -1.204000000
O     1.300000000     4.757000000    -1.708000000
C    -1.151000000     4.462000000    -2.078000000
C    -0.988000000     4.368000000    -3.618000000
H    -1.947000000     4.494000000    -4.126000000
C    -0.561000000     2.920000000    -3.980000000
C    -1.649000000     2.057000000    -4.320000000
H    -2.656000000     2.457000000    -4.233000000
H    -0.475000000     5.183000000    -4.135000000
C    -2.438000000     4.363000000    -1.531000000
H    -3.274000000     4.319000000    -2.225000000
C    -2.600000000     4.347000000    -0.140000000
C    -3.932000000     4.077000000     0.460000000
H    -4.700000000     4.451000000    -0.220000000
H    -4.199000000     4.654000000     1.348000000
C    -4.116000000     2.585000000     0.784000000
C    -4.763000000     1.767000000    -0.099000000
H    -4.966000000     2.114000000    -1.108000000
C    -3.597000000     2.008000000     1.948000000
C    -3.684000000     0.616000000     2.133000000
H    -3.303000000     0.139000000     3.032000000
C    -4.350000000    -0.166000000     1.216000000
O    -4.443000000    -1.426000000     1.609000000
C    -3.469000000    -2.326000000     1.064000000
C    -2.973000000    -3.471000000     1.988000000
C    -2.094000000    -4.389000000     1.473000000
H    -2.060000000    -4.536000000     0.396000000
C    -3.140000000    -3.362000000     3.398000000
H    -3.725000000    -2.555000000     3.831000000
O    -3.968000000    -2.897000000    -0.119000000
H    -2.556000000    -1.732000000     0.908000000
C    -5.036000000     0.425000000     0.119000000
C    -5.575000000    -0.534000000    -0.870000000
H    -6.318000000    -0.009000000    -1.474000000
H    -6.140000000    -1.371000000    -0.456000000
C    -4.484000000    -1.147000000    -1.756000000
C    -4.082000000    -0.464000000    -2.947000000
H    -4.430000000     0.509000000    -3.281000000
C    -3.669000000    -2.166000000    -1.230000000
C    -2.676000000    -2.710000000    -2.002000000
H    -2.211000000    -3.624000000    -1.641000000
C    -2.310000000    -2.132000000    -3.218000000
O    -1.276000000    -2.677000000    -3.886000000
C     0.017000000    -2.039000000    -3.741000000
C     1.132000000    -3.041000000    -3.559000000
C     0.790000000    -4.275000000    -3.067000000
H    -0.259000000    -4.473000000    -2.861000000
C     2.459000000    -2.747000000    -3.817000000
H     2.636000000    -1.715000000    -4.111000000
O     0.316000000    -1.068000000    -4.768000000
H    -0.087000000    -1.463000000    -2.809000000
C    -3.014000000    -1.014000000    -3.711000000
C    -2.490000000    -0.259000000    -4.969000000
H    -3.357000000     0.265000000    -5.378000000
H    -2.158000000    -0.930000000    -5.764000000
C    -1.363000000     0.721000000    -4.603000000
C    -0.030000000     0.244000000    -4.588000000
C     1.023000000     1.198000000    -4.408000000
H     2.048000000     0.846000000    -4.322000000
C     0.714000000     2.485000000    -4.002000000
O     1.760000000     3.277000000    -3.496000000
C     1.754000000     3.472000000    -2.105000000
H     1.105000000     2.669000000    -1.725000000
C     3.177000000     3.191000000    -1.541000000
C     3.582000000     3.887000000    -0.391000000
H     2.985000000     4.701000000     0.011000000
C     3.853000000     2.081000000    -1.887000000
H     3.532000000     1.262000000    -2.526000000
C     5.129000000     1.838000000    -1.285000000
O     5.813000000     0.668000000    -1.543000000
C     5.641000000     2.581000000    -0.217000000
H     6.476000000     2.366000000     0.446000000
C     4.805000000     3.617000000     0.261000000
O     5.322000000     4.349000000     1.283000000
C     4.546000000     4.907000000     2.291000000
C     3.858000000     4.044000000     3.180000000
H     3.936000000     2.961000000     3.130000000
C     4.509000000     6.288000000     2.429000000
H     5.087000000     6.772000000     1.646000000
C     3.743000000     6.954000000     3.407000000
H     3.679000000     8.030000000     3.547000000
C     3.130000000     6.042000000     4.375000000
H     2.577000000     6.428000000     5.227000000
C     3.201000000     4.646000000     4.229000000
O     2.550000000     3.933000000     5.224000000
C     1.514000000     3.096000000     4.853000000
C     1.515000000     1.799000000     5.473000000
H     2.262000000     1.367000000     6.133000000
C     0.461000000     0.964000000     5.174000000
O     0.595000000    -0.330000000     5.650000000
C    -0.566000000    -0.973000000     6.094000000
C    -0.843000000    -2.252000000     5.684000000
H    -0.175000000    -2.906000000     5.130000000
C    -1.393000000    -0.323000000     6.985000000
H    -1.096000000     0.652000000     7.364000000
C    -2.564000000    -0.956000000     7.524000000
H    -3.204000000    -0.441000000     8.235000000
C    -2.868000000    -2.182000000     6.951000000
H    -3.865000000    -2.508000000     7.236000000
C    -2.055000000    -2.812000000     6.030000000
O    -2.477000000    -4.028000000     5.515000000
C    -2.503000000    -4.271000000     4.167000000
C    -1.587000000    -5.159000000     3.656000000
H    -0.941000000    -5.805000000     4.245000000
C    -1.382000000    -5.201000000     2.279000000
O    -0.543000000    -6.174000000     1.778000000
C    -0.510000000    -6.733000000     0.521000000
C     0.459000000    -6.470000000    -0.353000000
H     1.334000000    -5.866000000    -0.126000000
C    -1.578000000    -7.593000000     0.187000000
H    -2.410000000    -7.708000000     0.877000000
C    -1.549000000    -8.144000000    -1.106000000
H    -2.244000000    -8.940000000    -1.360000000
C    -0.577000000    -7.824000000    -2.114000000
H    -0.610000000    -8.197000000    -3.135000000
C     0.431000000    -7.011000000    -1.666000000
O     1.350000000    -6.601000000    -2.633000000
C     1.716000000    -5.311000000    -2.924000000
C     3.037000000    -5.013000000    -3.248000000
H     3.767000000    -5.788000000    -3.025000000
C     3.441000000    -3.740000000    -3.590000000
O     4.691000000    -3.407000000    -3.820000000
C     5.252000000    -2.131000000    -3.828000000
C     5.995000000    -1.706000000    -4.934000000
H     6.082000000    -2.347000000    -5.808000000
C     6.626000000    -0.415000000    -4.949000000
H     7.220000000    -0.117000000    -5.809000000
C     6.546000000     0.422000000    -3.866000000
H     7.046000000     1.386000000    -3.832000000
C     5.767000000    -0.022000000    -2.755000000
C     5.158000000    -1.318000000    -2.749000000
H     4.831000000    -1.781000000    -1.822000000
C     0.734000000    -1.710000000     1.644000000
H     0.574000000    -2.263000000     2.566000000
C    -0.286000000    -0.931000000     1.085000000
H    -1.181000000    -0.785000000     1.685000000
C    -0.100000000    -0.249000000    -0.087000000
C    -1.198000000     0.681000000    -0.616000000
H    -0.881000000     1.725000000    -0.561000000
H    -1.417000000     0.502000000    -1.671000000
H    -2.116000000     0.616000000    -0.028000000
C     1.140000000    -0.340000000    -0.760000000
H     1.299000000     0.189000000    -1.697000000
C     2.118000000    -1.169000000    -0.241000000
H     3.079000000    -1.223000000    -0.746000000
C     1.969000000    -1.811000000     1.036000000
C     3.071000000    -2.621000000     1.690000000
O     4.195000000    -2.666000000     1.156000000
O     2.980000000    -2.919000000     2.860000000
O     5.522000000     0.651000000     3.888000000
H     5.587000000     0.525000000     2.941000000
H     4.789000000     0.095000000     4.153000000
O     5.543000000    -4.008000000     3.214000000
H     5.246000000    -3.335000000     2.600000000
H     5.907000000    -4.696000000     2.657000000
O     4.063000000    -1.453000000     4.643000000
H     3.926000000    -2.095000000     3.945000000
H     3.228000000    -1.425000000     5.109000000
O     2.705000000    -6.258000000     2.220000000
H     2.151000000    -5.526000000     2.491000000
H     2.306000000    -7.025000000     2.630000000
O     5.198000000     1.456000000     6.501000000
H     5.088000000     1.080000000     5.628000000
H     5.515000000     2.345000000     6.340000000
O     8.688000000    -3.418000000     4.040000000
H     9.063000000    -2.809000000     3.404000000
H     8.002000000    -2.914000000     4.478000000
O     4.321000000    -5.687000000    -0.409000000
H     4.046000000    -4.849000000    -0.037000000
H     4.322000000    -6.290000000     0.334000000
O     4.673000000    -8.068000000     1.670000000
H     5.446000000    -7.706000000     2.102000000
H     3.967000000    -7.462000000     1.896000000
O     5.118000000    -0.096000000     1.444000000
H     4.847000000    -1.014000000     1.457000000
H     5.366000000     0.067000000     0.534000000
O     7.050000000    -2.994000000     1.062000000
H     6.147000000    -2.690000000     0.972000000
H     7.297000000    -3.273000000     0.180000000
O     6.730000000    -1.901000000     5.147000000
H     5.807000000    -2.087000000     4.972000000
H     6.723000000    -1.058000000     5.600000000
O     8.014000000    -1.046000000     2.772000000
H     7.358000000    -1.280000000     3.428000000
H     7.573000000    -1.183000000     1.933000000
O     6.748000000    -4.749000000    -1.008000000
H     5.836000000    -5.024000000    -0.916000000
H     6.874000000    -4.648000000    -1.951000000
O     4.966000000    -2.936000000     7.591000000
H     4.891000000    -3.223000000     8.501000000
H     4.086000000    -2.637000000     7.361000000
O     1.666000000    -8.045000000     4.045000000
H     2.016000000    -8.898000000     4.303000000
H     1.932000000    -7.454000000     4.750000000
O     1.663000000    -6.332000000     6.495000000
H     1.979000000    -5.655000000     5.895000000
H     0.847000000    -5.978000000     6.848000000
O     2.528000000    -4.658000000     4.705000000
H     3.432000000    -4.824000000     4.973000000
H     2.608000000    -4.119000000     3.917000000
O     7.965000000    -5.593000000     1.350000000
H     7.549000000    -5.167000000     0.600000000
H     8.183000000    -4.874000000     1.942000000
O     5.186000000    -5.008000000     5.574000000
H     5.622000000    -4.343000000     6.106000000
H     5.223000000    -4.664000000     4.681000000
