218
-1446.63435
C    -0.018000000     1.329000000     5.224000000
H    -1.043000000     1.173000000     5.550000000
C     0.331000000     2.074000000     4.106000000
C     1.687000000     1.984000000     3.604000000
H     1.833000000     2.478000000     2.646000000
C    -0.738000000     2.724000000     3.235000000
O    -2.055000000     2.560000000     3.777000000
H    -0.746000000     2.295000000     2.222000000
O    -0.456000000     4.162000000     2.997000000
C    -0.518000000     4.573000000     1.651000000
C     0.652000000     4.604000000     0.823000000
H     1.616000000     4.522000000     1.317000000
C     0.554000000     4.695000000    -0.578000000
O     1.717000000     4.612000000    -1.383000000
C    -0.718000000     4.744000000    -1.189000000
C    -0.718000000     4.758000000    -2.737000000
H    -1.525000000     5.364000000    -3.155000000
C    -0.697000000     3.360000000    -3.410000000
C    -1.968000000     2.711000000    -3.628000000
H    -2.832000000     3.239000000    -3.231000000
H     0.184000000     5.289000000    -3.047000000
C    -1.838000000     4.705000000    -0.359000000
H    -2.788000000     4.736000000    -0.886000000
C    -1.747000000     4.503000000     1.000000000
C    -3.017000000     4.411000000     1.736000000
H    -3.678000000     5.070000000     1.169000000
H    -2.882000000     4.745000000     2.767000000
C    -3.493000000     2.938000000     1.818000000
C    -4.382000000     2.360000000     0.942000000
H    -4.790000000     2.994000000     0.159000000
C    -3.030000000     2.156000000     2.897000000
C    -3.348000000     0.826000000     3.017000000
H    -2.899000000     0.185000000     3.772000000
C    -4.258000000     0.256000000     2.069000000
O    -4.278000000    -1.119000000     2.031000000
C    -3.428000000    -1.709000000     1.089000000
C    -2.675000000    -2.855000000     1.857000000
C    -2.033000000    -3.816000000     1.105000000
H    -2.021000000    -3.795000000     0.018000000
C    -2.558000000    -2.965000000     3.231000000
H    -2.989000000    -2.274000000     3.951000000
O    -4.355000000    -2.291000000     0.154000000
H    -2.802000000    -0.889000000     0.705000000
C    -4.723000000     1.012000000     0.994000000
C    -5.581000000     0.413000000    -0.087000000
H    -6.372000000     1.134000000    -0.302000000
H    -6.148000000    -0.381000000     0.403000000
C    -4.796000000    -0.198000000    -1.187000000
C    -4.695000000     0.435000000    -2.441000000
H    -5.019000000     1.469000000    -2.526000000
C    -4.353000000    -1.565000000    -1.085000000
C    -3.691000000    -2.194000000    -2.129000000
H    -3.387000000    -3.237000000    -2.083000000
C    -3.330000000    -1.383000000    -3.250000000
O    -2.474000000    -1.952000000    -4.198000000
C    -1.021000000    -1.554000000    -4.144000000
C    -0.093000000    -2.655000000    -4.445000000
C    -0.567000000    -3.980000000    -4.269000000
H    -1.594000000    -4.108000000    -3.935000000
C     1.238000000    -2.446000000    -4.577000000
H     1.633000000    -1.433000000    -4.581000000
O    -0.672000000    -0.424000000    -5.039000000
H    -0.673000000    -1.273000000    -3.139000000
C    -3.817000000    -0.069000000    -3.382000000
C    -3.336000000     0.794000000    -4.501000000
H    -4.081000000     1.518000000    -4.836000000
H    -3.470000000     0.118000000    -5.348000000
C    -2.020000000     1.478000000    -4.191000000
C    -0.815000000     0.794000000    -4.534000000
C     0.420000000     1.457000000    -4.268000000
H     1.298000000     0.878000000    -4.543000000
C     0.555000000     2.680000000    -3.672000000
O     1.795000000     3.129000000    -3.194000000
C     2.143000000     3.298000000    -1.822000000
H     1.668000000     2.529000000    -1.195000000
C     3.633000000     2.978000000    -1.595000000
C     4.456000000     3.732000000    -0.794000000
H     3.956000000     4.496000000    -0.205000000
C     4.006000000     1.785000000    -2.209000000
H     3.339000000     1.168000000    -2.806000000
C     5.384000000     1.489000000    -2.164000000
O     5.901000000     0.274000000    -2.649000000
C     6.222000000     2.163000000    -1.238000000
H     7.269000000     1.907000000    -1.099000000
C     5.708000000     3.262000000    -0.522000000
O     6.384000000     3.898000000     0.501000000
C     5.912000000     3.770000000     1.816000000
C     5.164000000     2.613000000     2.250000000
H     4.993000000     1.960000000     1.398000000
C     6.144000000     4.845000000     2.707000000
H     6.679000000     5.729000000     2.369000000
C     5.508000000     4.853000000     3.920000000
H     5.569000000     5.682000000     4.620000000
C     4.779000000     3.708000000     4.334000000
H     4.248000000     3.714000000     5.282000000
C     4.723000000     2.488000000     3.558000000
O     3.975000000     1.320000000     3.878000000
C     2.678000000     1.349000000     4.315000000
C     2.280000000     0.680000000     5.463000000
H     3.019000000     0.106000000     6.017000000
C     0.964000000     0.509000000     5.819000000
O     0.664000000    -0.211000000     6.894000000
C    -0.325000000    -1.171000000     6.919000000
C    -0.455000000    -2.180000000     5.951000000
H     0.230000000    -2.251000000     5.109000000
C    -0.989000000    -1.352000000     8.154000000
H    -0.874000000    -0.602000000     8.933000000
C    -1.781000000    -2.461000000     8.378000000
H    -2.183000000    -2.696000000     9.360000000
C    -1.987000000    -3.395000000     7.348000000
H    -2.512000000    -4.343000000     7.432000000
C    -1.383000000    -3.171000000     6.129000000
O    -1.642000000    -4.118000000     5.215000000
C    -1.839000000    -4.056000000     3.854000000
C    -1.238000000    -5.042000000     3.090000000
H    -0.669000000    -5.794000000     3.630000000
C    -1.302000000    -4.900000000     1.706000000
O    -0.653000000    -5.828000000     0.918000000
C    -1.109000000    -6.221000000    -0.338000000
C    -0.359000000    -6.157000000    -1.501000000
H     0.671000000    -5.812000000    -1.463000000
C    -2.368000000    -6.848000000    -0.487000000
H    -2.888000000    -7.060000000     0.444000000
C    -2.943000000    -7.107000000    -1.721000000
H    -3.936000000    -7.545000000    -1.780000000
C    -2.237000000    -6.793000000    -2.880000000
H    -2.728000000    -6.937000000    -3.840000000
C    -0.892000000    -6.422000000    -2.761000000
O    -0.141000000    -6.260000000    -3.946000000
C     0.338000000    -5.027000000    -4.233000000
C     1.657000000    -4.787000000    -4.393000000
H     2.316000000    -5.650000000    -4.438000000
C     2.141000000    -3.524000000    -4.609000000
O     3.507000000    -3.348000000    -4.711000000
C     4.125000000    -2.100000000    -4.868000000
C     3.862000000    -1.337000000    -5.969000000
H     3.255000000    -1.707000000    -6.792000000
C     4.473000000    -0.118000000    -6.021000000
H     4.387000000     0.475000000    -6.928000000
C     5.202000000     0.420000000    -4.972000000
H     5.423000000     1.481000000    -4.891000000
C     5.327000000    -0.331000000    -3.806000000
C     4.825000000    -1.626000000    -3.775000000
H     4.888000000    -2.217000000    -2.865000000
C     0.872000000    -2.188000000     2.102000000
H     0.661000000    -2.452000000     3.135000000
C     0.198000000    -1.029000000     1.594000000
H    -0.456000000    -0.412000000     2.204000000
C     0.422000000    -0.684000000     0.226000000
C    -0.342000000     0.432000000    -0.469000000
H    -0.032000000     0.543000000    -1.510000000
H    -1.424000000     0.290000000    -0.492000000
H    -0.094000000     1.419000000    -0.072000000
C     1.125000000    -1.551000000    -0.552000000
H     1.250000000    -1.389000000    -1.620000000
C     1.648000000    -2.723000000    -0.087000000
H     2.220000000    -3.474000000    -0.625000000
C     1.565000000    -3.006000000     1.271000000
C     2.254000000    -4.257000000     1.841000000
O     3.078000000    -4.823000000     1.178000000
O     2.215000000    -4.416000000     3.044000000
O     5.111000000    -1.419000000     4.160000000
H     5.904000000    -1.316000000     3.635000000
H     4.445000000    -0.918000000     3.690000000
O     4.915000000    -3.625000000    -0.616000000
H     4.850000000    -4.184000000    -1.390000000
H     4.326000000    -4.030000000     0.022000000
O     4.717000000    -5.559000000     3.078000000
H     5.353000000    -4.888000000     2.833000000
H     3.902000000    -5.281000000     2.659000000
O     2.800000000    -2.984000000     5.144000000
H     2.452000000    -3.445000000     4.380000000
H     3.520000000    -2.458000000     4.799000000
O     7.879000000    -3.279000000     4.933000000
H     8.142000000    -4.190000000     4.802000000
H     7.441000000    -3.037000000     4.117000000
O     0.814000000    -6.573000000     7.089000000
H     1.212000000    -7.333000000     7.515000000
H     1.388000000    -6.387000000     6.346000000
O     6.744000000    -7.126000000     0.545000000
H     7.374000000    -7.515000000    -0.063000000
H     7.283000000    -6.758000000     1.245000000
O     7.143000000    -0.392000000     2.288000000
H     6.616000000    -0.865000000     1.644000000
H     7.995000000    -0.828000000     2.267000000
O    -0.057000000    -8.855000000     1.840000000
H     0.473000000    -8.348000000     2.455000000
H    -0.942000000    -8.824000000     2.203000000
O     4.100000000    -6.986000000    -0.289000000
H     4.994000000    -7.100000000     0.034000000
H     3.752000000    -6.256000000     0.223000000
O     2.694000000    -8.889000000    -1.725000000
H     2.905000000    -8.669000000    -2.632000000
H     3.144000000    -8.223000000    -1.206000000
O     5.670000000    -1.308000000     0.171000000
H     5.315000000    -0.724000000    -0.500000000
H     5.294000000    -2.164000000    -0.033000000
O     2.551000000    -8.075000000     2.398000000
H     2.902000000    -8.822000000     1.913000000
H     2.705000000    -7.324000000     1.825000000
O    -0.079000000    -9.592000000    -0.867000000
H     0.829000000    -9.487000000    -1.149000000
H    -0.103000000    -9.212000000     0.011000000
O     3.976000000    -5.280000000     6.343000000
H     3.721000000    -5.937000000     5.696000000
H     3.454000000    -4.509000000     6.120000000
O     6.224000000    -7.737000000     4.044000000
H     6.187000000    -7.797000000     3.089000000
H     5.775000000    -6.918000000     4.250000000
O     5.458000000    -5.710000000    -2.514000000
H     4.939000000    -6.382000000    -2.072000000
H     5.662000000    -6.088000000    -3.369000000
O     2.314000000    -6.494000000     4.634000000
H     2.562000000    -7.098000000     3.934000000
H     2.249000000    -5.642000000     4.204000000
O     6.678000000    -3.765000000     2.155000000
H     6.306000000    -3.554000000     1.299000000
H     7.408000000    -4.353000000     1.960000000
