218
-1479.72254
C    -1.868000000    -2.859000000    -3.824000000
H    -1.861000000    -2.008000000    -4.500000000
C    -2.544000000    -2.793000000    -2.590000000
C    -2.532000000    -3.844000000    -1.719000000
H    -3.037000000    -3.818000000    -0.756000000
C    -3.149000000    -1.433000000    -2.174000000
O    -3.446000000    -0.604000000    -3.346000000
H    -2.377000000    -0.959000000    -1.550000000
O    -4.355000000    -1.694000000    -1.337000000
C    -4.463000000    -0.897000000    -0.259000000
C    -4.089000000    -1.467000000     0.972000000
H    -3.765000000    -2.504000000     1.009000000
C    -4.044000000    -0.628000000     2.091000000
O    -3.595000000    -1.248000000     3.261000000
C    -4.351000000     0.714000000     1.991000000
C    -4.318000000     1.555000000     3.236000000
H    -5.000000000     2.408000000     3.217000000
C    -2.908000000     2.111000000     3.476000000
C    -2.585000000     3.365000000     3.026000000
H    -3.305000000     4.009000000     2.527000000
H    -4.594000000     0.892000000     4.059000000
C    -4.596000000     1.264000000     0.731000000
H    -4.753000000     2.338000000     0.688000000
C    -4.589000000     0.479000000    -0.410000000
C    -5.072000000     1.183000000    -1.662000000
H    -5.700000000     2.013000000    -1.333000000
H    -5.736000000     0.497000000    -2.192000000
C    -3.907000000     1.628000000    -2.487000000
C    -3.400000000     2.948000000    -2.275000000
H    -3.891000000     3.616000000    -1.572000000
C    -3.120000000     0.765000000    -3.263000000
C    -1.992000000     1.185000000    -3.969000000
H    -1.503000000     0.461000000    -4.616000000
C    -1.549000000     2.472000000    -3.730000000
O    -0.370000000     2.842000000    -4.377000000
C     0.740000000     2.902000000    -3.489000000
C     1.900000000     2.204000000    -4.128000000
C     3.240000000     2.452000000    -3.704000000
H     3.531000000     3.230000000    -3.003000000
C     1.694000000     1.160000000    -5.032000000
H     0.698000000     0.950000000    -5.413000000
O     1.114000000     4.219000000    -2.983000000
H     0.513000000     2.311000000    -2.589000000
C    -2.221000000     3.352000000    -2.899000000
C    -1.745000000     4.754000000    -2.610000000
H    -2.580000000     5.439000000    -2.448000000
H    -1.283000000     5.189000000    -3.499000000
C    -0.700000000     4.784000000    -1.496000000
C    -1.084000000     5.077000000    -0.123000000
H    -2.126000000     5.225000000     0.150000000
C     0.685000000     4.560000000    -1.701000000
C     1.557000000     4.409000000    -0.693000000
H     2.578000000     4.110000000    -0.915000000
C     1.111000000     4.413000000     0.603000000
O     2.042000000     3.968000000     1.522000000
C     1.744000000     2.746000000     2.229000000
C     3.086000000     2.003000000     2.512000000
C     4.139000000     2.145000000     1.667000000
H     4.057000000     2.865000000     0.856000000
C     3.178000000     1.032000000     3.559000000
H     2.342000000     0.827000000     4.223000000
O     1.091000000     3.114000000     3.476000000
H     1.121000000     2.077000000     1.618000000
C    -0.204000000     4.826000000     0.941000000
C    -0.784000000     4.995000000     2.321000000
H    -1.585000000     5.736000000     2.264000000
H    -0.001000000     5.507000000     2.884000000
C    -1.212000000     3.700000000     3.035000000
C    -0.260000000     2.838000000     3.616000000
C    -0.719000000     1.749000000     4.321000000
H     0.001000000     1.075000000     4.778000000
C    -1.985000000     1.300000000     4.140000000
O    -2.198000000    -0.010000000     4.529000000
C    -2.186000000    -0.982000000     3.574000000
H    -1.622000000    -0.618000000     2.703000000
C    -1.644000000    -2.297000000     4.121000000
C    -2.194000000    -3.537000000     3.666000000
H    -3.050000000    -3.579000000     2.997000000
C    -0.570000000    -2.326000000     4.936000000
H    -0.187000000    -1.358000000     5.246000000
C    -0.049000000    -3.552000000     5.366000000
O     1.052000000    -3.569000000     6.165000000
C    -0.555000000    -4.725000000     4.966000000
H    -0.202000000    -5.681000000     5.345000000
C    -1.610000000    -4.751000000     4.035000000
O    -2.224000000    -5.921000000     3.668000000
C    -2.519000000    -6.289000000     2.383000000
C    -1.666000000    -5.990000000     1.318000000
H    -0.786000000    -5.357000000     1.397000000
C    -3.685000000    -7.034000000     2.218000000
H    -4.250000000    -7.355000000     3.089000000
C    -4.077000000    -7.375000000     0.938000000
H    -4.943000000    -7.984000000     0.694000000
C    -3.323000000    -7.034000000    -0.124000000
H    -3.651000000    -7.398000000    -1.095000000
C    -2.092000000    -6.360000000     0.044000000
O    -1.351000000    -5.997000000    -1.075000000
C    -1.703000000    -4.945000000    -1.982000000
C    -1.070000000    -5.017000000    -3.199000000
H    -0.366000000    -5.837000000    -3.317000000
C    -1.120000000    -3.961000000    -4.129000000
O    -0.289000000    -4.047000000    -5.190000000
C    -0.021000000    -3.027000000    -6.059000000
C     1.098000000    -2.230000000    -5.898000000
H     1.825000000    -2.510000000    -5.140000000
C    -0.836000000    -2.898000000    -7.222000000
H    -1.727000000    -3.492000000    -7.409000000
C    -0.611000000    -1.776000000    -8.104000000
H    -1.306000000    -1.627000000    -8.926000000
C     0.429000000    -0.876000000    -7.850000000
H     0.703000000    -0.014000000    -8.453000000
C     1.279000000    -1.168000000    -6.769000000
O     2.431000000    -0.424000000    -6.600000000
C     2.764000000     0.425000000    -5.535000000
C     4.026000000     0.820000000    -5.214000000
H     4.856000000     0.457000000    -5.813000000
C     4.305000000     1.749000000    -4.210000000
O     5.615000000     2.025000000    -3.839000000
C     5.986000000     2.549000000    -2.633000000
C     5.663000000     1.990000000    -1.386000000
H     4.893000000     1.225000000    -1.428000000
C     6.870000000     3.618000000    -2.682000000
H     7.009000000     4.144000000    -3.623000000
C     7.344000000     4.138000000    -1.500000000
H     8.006000000     4.999000000    -1.520000000
C     7.255000000     3.361000000    -0.310000000
H     7.848000000     3.560000000     0.579000000
C     6.371000000     2.270000000    -0.215000000
O     6.362000000     1.615000000     0.961000000
C     5.340000000     1.437000000     1.846000000
C     5.373000000     0.435000000     2.779000000
H     6.166000000    -0.308000000     2.794000000
C     4.364000000     0.242000000     3.687000000
O     4.509000000    -0.849000000     4.534000000
C     3.593000000    -1.136000000     5.449000000
C     3.686000000    -0.477000000     6.690000000
H     4.516000000     0.202000000     6.871000000
C     2.945000000    -0.825000000     7.799000000
H     2.961000000    -0.298000000     8.750000000
C     2.041000000    -1.915000000     7.625000000
H     1.503000000    -2.338000000     8.470000000
C     1.887000000    -2.505000000     6.308000000
C     2.733000000    -2.202000000     5.279000000
H     2.709000000    -2.751000000     4.341000000
C     1.093000000    -2.165000000    -1.854000000
H     1.592000000    -2.497000000    -2.761000000
C     0.447000000    -0.944000000    -1.576000000
H     0.343000000    -0.154000000    -2.316000000
C    -0.062000000    -0.649000000    -0.279000000
C    -0.613000000     0.683000000     0.072000000
H    -0.782000000     0.726000000     1.150000000
H     0.068000000     1.480000000    -0.234000000
H    -1.599000000     0.845000000    -0.368000000
C     0.143000000    -1.530000000     0.719000000
H    -0.191000000    -1.316000000     1.731000000
C     0.680000000    -2.836000000     0.508000000
H     0.582000000    -3.557000000     1.315000000
C     1.199000000    -3.125000000    -0.738000000
C     2.038000000    -4.391000000    -0.918000000
O     2.341000000    -5.060000000     0.047000000
O     2.470000000    -4.671000000    -1.982000000
O     6.317000000    -5.304000000     3.389000000
H     5.913000000    -5.063000000     4.223000000
H     5.590000000    -5.318000000     2.766000000
O     4.249000000    -0.985000000    -0.062000000
H     3.352000000    -1.320000000    -0.087000000
H     4.606000000    -1.192000000    -0.926000000
O     5.875000000    -7.806000000    -2.390000000
H     4.997000000    -7.632000000    -2.729000000
H     5.966000000    -8.758000000    -2.441000000
O     4.428000000    -5.149000000     1.475000000
H     3.514000000    -5.078000000     1.202000000
H     4.928000000    -5.071000000     0.662000000
O    -0.118000000    -9.314000000    -1.579000000
H    -0.336000000    -8.856000000    -0.768000000
H    -0.946000000    -9.701000000    -1.865000000
O     5.819000000    -2.621000000     1.408000000
H     5.316000000    -1.907000000     1.016000000
H     5.188000000    -3.335000000     1.502000000
O     6.513000000    -8.113000000     0.434000000
H     6.916000000    -8.886000000     0.038000000
H     6.235000000    -7.580000000    -0.311000000
O     3.523000000    -4.150000000    -4.408000000
H     3.477000000    -5.048000000    -4.735000000
H     3.036000000    -4.170000000    -3.584000000
O     4.968000000    -2.110000000    -2.445000000
H     4.484000000    -2.485000000    -3.181000000
H     5.672000000    -2.737000000    -2.278000000
O     2.075000000   -10.535000000    -0.243000000
H     2.570000000    -9.722000000    -0.145000000
H     1.283000000   -10.278000000    -0.716000000
O     2.723000000    -7.492000000    -2.393000000
H     2.594000000    -6.544000000    -2.367000000
H     2.688000000    -7.764000000    -1.476000000
O     1.144000000    -6.329000000     2.576000000
H     1.848000000    -5.818000000     2.975000000
H     1.226000000    -6.158000000     1.638000000
O     0.078000000    -8.718000000     1.482000000
H     0.195000000    -7.865000000     1.900000000
H     0.889000000    -9.190000000     1.671000000
O    -0.392000000    -8.257000000    -4.079000000
H    -1.274000000    -8.622000000    -4.149000000
H    -0.105000000    -8.492000000    -3.196000000
O     2.781000000    -8.014000000     0.290000000
H     3.323000000    -8.162000000     1.064000000
H     2.670000000    -7.064000000     0.254000000
O     6.714000000    -5.841000000    -4.067000000
H     7.369000000    -6.289000000    -4.602000000
H     6.519000000    -6.457000000    -3.361000000
O     5.292000000    -4.899000000    -1.333000000
H     5.820000000    -5.382000000    -1.969000000
H     4.387000000    -5.069000000    -1.595000000
O     0.900000000    -6.843000000    -5.830000000
H     0.515000000    -5.972000000    -5.932000000
H     0.309000000    -7.297000000    -5.228000000
O     3.402000000    -8.754000000    -4.723000000
H     3.142000000    -8.182000000    -4.001000000
H     2.952000000    -9.580000000    -4.548000000
