218
-1435.19595
C     0.859000000     1.724000000     5.157000000
H     0.044000000     1.117000000     5.542000000
C     0.752000000     2.568000000     4.046000000
C     1.890000000     3.364000000     3.718000000
H     1.786000000     4.220000000     3.056000000
C    -0.535000000     2.726000000     3.243000000
O    -1.644000000     2.280000000     4.014000000
H    -0.513000000     2.214000000     2.269000000
O    -0.775000000     4.110000000     2.822000000
C    -1.235000000     4.289000000     1.502000000
C    -0.275000000     4.488000000     0.538000000
H     0.774000000     4.504000000     0.821000000
C    -0.625000000     4.288000000    -0.854000000
O     0.377000000     4.192000000    -1.746000000
C    -1.980000000     4.209000000    -1.222000000
C    -2.422000000     4.210000000    -2.695000000
H    -3.462000000     4.508000000    -2.849000000
C    -2.319000000     2.832000000    -3.319000000
C    -3.393000000     1.924000000    -3.227000000
H    -4.318000000     2.168000000    -2.711000000
H    -1.836000000     4.931000000    -3.270000000
C    -2.907000000     4.008000000    -0.212000000
H    -3.939000000     3.860000000    -0.521000000
C    -2.539000000     4.078000000     1.167000000
C    -3.551000000     3.796000000     2.293000000
H    -4.552000000     4.149000000     2.036000000
H    -3.221000000     4.357000000     3.169000000
C    -3.682000000     2.278000000     2.648000000
C    -4.536000000     1.460000000     1.972000000
H    -5.238000000     1.938000000     1.293000000
C    -2.632000000     1.608000000     3.356000000
C    -2.547000000     0.243000000     3.419000000
H    -1.807000000    -0.235000000     4.056000000
C    -3.498000000    -0.516000000     2.894000000
O    -3.365000000    -1.870000000     3.041000000
C    -2.629000000    -2.590000000     2.109000000
C    -1.388000000    -3.379000000     2.608000000
C    -0.746000000    -4.286000000     1.817000000
H    -1.088000000    -4.418000000     0.793000000
C    -0.885000000    -3.236000000     3.924000000
H    -1.345000000    -2.589000000     4.667000000
O    -3.475000000    -3.235000000     1.159000000
H    -2.124000000    -1.947000000     1.374000000
C    -4.521000000     0.037000000     2.119000000
C    -5.448000000    -0.876000000     1.311000000
H    -6.301000000    -0.236000000     1.075000000
H    -5.764000000    -1.749000000     1.885000000
C    -4.663000000    -1.401000000     0.104000000
C    -4.741000000    -0.649000000    -1.074000000
H    -5.208000000     0.333000000    -1.094000000
C    -3.913000000    -2.605000000     0.000000000
C    -3.320000000    -3.053000000    -1.169000000
H    -2.639000000    -3.897000000    -1.094000000
C    -3.461000000    -2.291000000    -2.319000000
O    -2.703000000    -2.627000000    -3.413000000
C    -1.477000000    -1.951000000    -3.653000000
C    -0.296000000    -2.849000000    -3.966000000
C    -0.352000000    -4.206000000    -3.705000000
H    -1.249000000    -4.691000000    -3.329000000
C     0.914000000    -2.277000000    -4.361000000
H     1.041000000    -1.197000000    -4.344000000
O    -1.722000000    -1.024000000    -4.744000000
H    -1.126000000    -1.376000000    -2.784000000
C    -4.243000000    -1.176000000    -2.290000000
C    -4.385000000    -0.407000000    -3.568000000
H    -5.319000000     0.159000000    -3.527000000
H    -4.411000000    -1.081000000    -4.426000000
C    -3.217000000     0.579000000    -3.760000000
C    -2.053000000     0.246000000    -4.352000000
C    -1.073000000     1.156000000    -4.452000000
H    -0.092000000     0.798000000    -4.754000000
C    -1.163000000     2.489000000    -3.968000000
O    -0.045000000     3.236000000    -3.863000000
C     0.682000000     3.091000000    -2.517000000
H     0.300000000     2.125000000    -2.156000000
C     2.182000000     3.054000000    -2.667000000
C     2.980000000     3.199000000    -1.538000000
H     2.516000000     3.444000000    -0.586000000
C     2.696000000     2.712000000    -3.881000000
H     2.096000000     2.487000000    -4.759000000
C     4.101000000     2.641000000    -3.933000000
O     4.623000000     2.146000000    -5.049000000
C     4.930000000     2.702000000    -2.857000000
H     6.003000000     2.563000000    -2.963000000
C     4.391000000     3.032000000    -1.595000000
O     5.191000000     3.241000000    -0.531000000
C     4.879000000     4.215000000     0.460000000
C     4.747000000     3.822000000     1.762000000
H     4.855000000     2.762000000     1.973000000
C     4.503000000     5.530000000     0.189000000
H     4.601000000     5.879000000    -0.836000000
C     4.177000000     6.414000000     1.247000000
H     3.887000000     7.431000000     0.995000000
C     4.059000000     5.970000000     2.543000000
H     3.702000000     6.628000000     3.331000000
C     4.348000000     4.664000000     2.815000000
O     4.081000000     4.170000000     4.053000000
C     3.059000000     3.329000000     4.474000000
C     3.203000000     2.429000000     5.494000000
H     4.128000000     2.229000000     6.029000000
C     2.074000000     1.604000000     5.781000000
O     2.310000000     0.713000000     6.800000000
C     1.609000000    -0.438000000     7.073000000
C     1.670000000    -1.470000000     6.131000000
H     2.308000000    -1.371000000     5.256000000
C     0.866000000    -0.544000000     8.235000000
H     0.766000000     0.345000000     8.852000000
C     0.196000000    -1.717000000     8.579000000
H    -0.368000000    -1.796000000     9.505000000
C     0.341000000    -2.762000000     7.676000000
H    -0.204000000    -3.671000000     7.914000000
C     0.964000000    -2.647000000     6.420000000
O     0.903000000    -3.776000000     5.609000000
C     0.278000000    -3.873000000     4.343000000
C     0.752000000    -4.884000000     3.524000000
H     1.642000000    -5.406000000     3.867000000
C     0.181000000    -5.141000000     2.300000000
O     0.693000000    -6.163000000     1.462000000
C     0.189000000    -6.551000000     0.233000000
C     0.731000000    -6.158000000    -1.024000000
H     1.616000000    -5.527000000    -1.019000000
C    -0.881000000    -7.443000000     0.247000000
H    -1.367000000    -7.760000000     1.166000000
C    -1.439000000    -7.863000000    -0.945000000
H    -2.224000000    -8.614000000    -0.901000000
C    -0.889000000    -7.487000000    -2.197000000
H    -1.377000000    -7.779000000    -3.123000000
C     0.273000000    -6.700000000    -2.221000000
O     0.828000000    -6.229000000    -3.413000000
C     0.832000000    -4.943000000    -3.761000000
C     2.033000000    -4.393000000    -4.190000000
H     2.941000000    -4.986000000    -4.109000000
C     2.076000000    -3.040000000    -4.491000000
O     3.288000000    -2.385000000    -4.585000000
C     3.633000000    -1.358000000    -5.439000000
C     3.474000000    -1.469000000    -6.811000000
H     3.094000000    -2.359000000    -7.307000000
C     3.819000000    -0.413000000    -7.641000000
H     3.709000000    -0.388000000    -8.722000000
C     4.214000000     0.816000000    -7.054000000
H     4.535000000     1.652000000    -7.671000000
C     4.283000000     0.969000000    -5.620000000
C     4.058000000    -0.156000000    -4.867000000
H     4.185000000    -0.085000000    -3.790000000
C     1.274000000    -1.157000000     1.575000000
H     1.648000000    -1.313000000     2.583000000
C     0.055000000    -0.574000000     1.311000000
H    -0.609000000    -0.375000000     2.149000000
C    -0.217000000    -0.226000000     0.004000000
C    -1.578000000     0.404000000    -0.344000000
H    -1.763000000     0.303000000    -1.415000000
H    -2.380000000    -0.101000000     0.199000000
H    -1.661000000     1.472000000    -0.131000000
C     0.752000000    -0.538000000    -0.992000000
H     0.583000000    -0.300000000    -2.040000000
C     1.865000000    -1.278000000    -0.675000000
H     2.482000000    -1.614000000    -1.504000000
C     2.193000000    -1.543000000     0.601000000
C     3.553000000    -2.174000000     0.931000000
O     4.216000000    -2.666000000     0.042000000
O     3.936000000    -2.107000000     2.117000000
O     4.382000000    -5.169000000     1.115000000
H     4.098000000    -4.309000000     0.805000000
H     3.582000000    -5.694000000     1.131000000
O     6.469000000    -2.272000000     2.455000000
H     5.632000000    -2.345000000     1.996000000
H     6.237000000    -1.955000000     3.328000000
O     3.514000000    -8.154000000     0.142000000
H     4.091000000    -8.815000000     0.523000000
H     3.276000000    -8.508000000    -0.715000000
O     4.545000000    -8.016000000     3.131000000
H     5.297000000    -7.885000000     3.710000000
H     4.909000000    -7.957000000     2.248000000
O     4.045000000     0.310000000     3.044000000
H     3.867000000    -0.493000000     2.554000000
H     3.260000000     0.445000000     3.575000000
O     5.929000000    -2.020000000     5.324000000
H     6.854000000    -2.261000000     5.353000000
H     5.906000000    -1.116000000     5.639000000
O     6.420000000    -6.529000000    -0.214000000
H     5.820000000    -5.804000000    -0.037000000
H     6.783000000    -6.754000000     0.643000000
O    10.252000000    -4.005000000     0.351000000
H    10.813000000    -3.357000000     0.776000000
H     9.569000000    -4.191000000     0.995000000
O     8.686000000    -3.691000000     2.359000000
H     7.828000000    -3.276000000     2.266000000
H     9.281000000    -2.968000000     2.559000000
O     6.921000000     0.839000000     4.050000000
H     6.072000000     0.683000000     3.637000000
H     7.250000000     1.635000000     3.631000000
O     5.713000000    -4.575000000    -4.604000000
H     5.232000000    -4.297000000    -3.825000000
H     6.301000000    -3.843000000    -4.796000000
O     8.806000000    -1.624000000    -1.963000000
H     8.827000000    -0.757000000    -1.557000000
H     9.620000000    -2.040000000    -1.680000000
O     4.539000000    -4.168000000     6.337000000
H     4.306000000    -4.224000000     5.410000000
H     5.017000000    -3.342000000     6.414000000
O     7.628000000    -6.375000000     2.434000000
H     7.067000000    -6.558000000     3.188000000
H     7.922000000    -5.474000000     2.567000000
O     6.957000000     0.079000000    -3.810000000
H     6.283000000     0.331000000    -3.179000000
H     7.483000000    -0.576000000    -3.351000000
O     4.840000000    -3.541000000    -2.265000000
H     4.993000000    -2.712000000    -2.718000000
H     4.356000000    -3.297000000    -1.476000000
O     4.488000000    -4.730000000     3.631000000
H     4.618000000    -5.038000000     2.734000000
H     4.641000000    -3.786000000     3.585000000
O     8.323000000     0.666000000    -0.554000000
H     7.414000000     0.411000000    -0.710000000
H     8.272000000     1.322000000     0.142000000
O     5.998000000    -0.582000000    -0.970000000
H     6.614000000    -1.304000000    -0.842000000
H     5.137000000    -0.976000000    -0.831000000
