218
-1462.49979
C     0.974000000     1.169000000     4.946000000
H     0.088000000     0.651000000     5.305000000
C     0.735000000     2.181000000     3.977000000
C     1.803000000     2.996000000     3.584000000
H     1.716000000     3.796000000     2.852000000
C    -0.683000000     2.326000000     3.355000000
O    -1.772000000     1.807000000     4.201000000
H    -0.752000000     1.937000000     2.328000000
O    -0.955000000     3.639000000     3.152000000
C    -1.473000000     4.053000000     1.992000000
C    -0.555000000     4.385000000     0.979000000
H     0.512000000     4.500000000     1.152000000
C    -0.990000000     4.432000000    -0.359000000
O    -0.076000000     4.874000000    -1.296000000
C    -2.376000000     4.180000000    -0.658000000
C    -2.907000000     4.211000000    -2.102000000
H    -3.997000000     4.144000000    -2.115000000
C    -2.538000000     3.050000000    -3.006000000
C    -3.446000000     2.046000000    -3.102000000
H    -4.414000000     2.058000000    -2.608000000
H    -2.733000000     5.081000000    -2.739000000
C    -3.266000000     3.794000000     0.392000000
H    -4.314000000     3.589000000     0.187000000
C    -2.844000000     3.792000000     1.666000000
C    -3.726000000     3.189000000     2.699000000
H    -4.739000000     3.518000000     2.459000000
H    -3.596000000     3.728000000     3.640000000
C    -3.732000000     1.597000000     2.837000000
C    -4.648000000     0.841000000     2.088000000
H    -5.471000000     1.248000000     1.506000000
C    -2.702000000     1.021000000     3.589000000
C    -2.564000000    -0.374000000     3.630000000
H    -1.747000000    -0.834000000     4.180000000
C    -3.388000000    -1.148000000     2.795000000
O    -3.194000000    -2.488000000     2.787000000
C    -2.512000000    -3.196000000     1.736000000
C    -1.468000000    -4.153000000     2.275000000
C    -1.009000000    -5.136000000     1.421000000
H    -1.417000000    -5.224000000     0.417000000
C    -0.820000000    -3.922000000     3.467000000
H    -1.083000000    -3.070000000     4.089000000
O    -3.468000000    -3.630000000     0.786000000
H    -1.902000000    -2.482000000     1.164000000
C    -4.356000000    -0.545000000     2.023000000
C    -5.234000000    -1.424000000     1.112000000
H    -6.111000000    -0.845000000     0.814000000
H    -5.617000000    -2.343000000     1.560000000
C    -4.619000000    -1.762000000    -0.238000000
C    -4.803000000    -0.942000000    -1.361000000
H    -5.451000000    -0.069000000    -1.380000000
C    -3.714000000    -2.853000000    -0.310000000
C    -2.916000000    -3.010000000    -1.378000000
H    -2.110000000    -3.738000000    -1.340000000
C    -3.041000000    -2.139000000    -2.464000000
O    -2.209000000    -2.390000000    -3.546000000
C    -0.981000000    -1.602000000    -3.562000000
C     0.256000000    -2.417000000    -3.764000000
C     0.311000000    -3.727000000    -3.402000000
H    -0.497000000    -4.123000000    -2.793000000
C     1.341000000    -1.863000000    -4.421000000
H     1.164000000    -0.930000000    -4.951000000
O    -1.260000000    -0.573000000    -4.575000000
H    -0.893000000    -1.098000000    -2.588000000
C    -4.006000000    -1.118000000    -2.529000000
C    -4.127000000    -0.268000000    -3.741000000
H    -5.155000000     0.096000000    -3.676000000
H    -3.841000000    -0.873000000    -4.604000000
C    -3.124000000     0.840000000    -3.773000000
C    -1.823000000     0.597000000    -4.213000000
C    -0.932000000     1.677000000    -4.135000000
H     0.137000000     1.595000000    -4.312000000
C    -1.246000000     2.900000000    -3.580000000
O    -0.178000000     3.845000000    -3.498000000
C     0.462000000     3.930000000    -2.187000000
H     0.319000000     2.947000000    -1.716000000
C     1.938000000     3.978000000    -2.263000000
C     2.645000000     4.895000000    -1.409000000
H     2.113000000     5.513000000    -0.691000000
C     2.696000000     3.073000000    -2.937000000
H     2.152000000     2.356000000    -3.546000000
C     4.079000000     3.071000000    -2.873000000
O     4.692000000     2.061000000    -3.524000000
C     4.765000000     3.945000000    -2.042000000
H     5.844000000     4.021000000    -1.942000000
C     4.042000000     4.905000000    -1.430000000
O     4.639000000     5.815000000    -0.607000000
C     4.306000000     5.747000000     0.707000000
C     4.298000000     4.584000000     1.476000000
H     4.701000000     3.654000000     1.084000000
C     3.816000000     6.951000000     1.233000000
H     3.627000000     7.774000000     0.549000000
C     3.333000000     6.983000000     2.520000000
H     2.883000000     7.900000000     2.889000000
C     3.518000000     5.878000000     3.341000000
H     3.357000000     5.956000000     4.413000000
C     3.947000000     4.681000000     2.811000000
O     4.109000000     3.586000000     3.634000000
C     3.101000000     2.765000000     4.053000000
C     3.274000000     1.643000000     4.853000000
H     4.286000000     1.369000000     5.141000000
C     2.252000000     0.837000000     5.300000000
O     2.663000000    -0.218000000     6.148000000
C     1.832000000    -1.313000000     6.401000000
C     1.783000000    -2.384000000     5.547000000
H     2.535000000    -2.454000000     4.765000000
C     0.886000000    -1.162000000     7.347000000
H     0.934000000    -0.249000000     7.935000000
C    -0.038000000    -2.207000000     7.602000000
H    -0.817000000    -2.049000000     8.344000000
C     0.001000000    -3.373000000     6.900000000
H    -0.631000000    -4.233000000     7.108000000
C     0.891000000    -3.445000000     5.763000000
O     0.989000000    -4.564000000     4.955000000
C     0.216000000    -4.797000000     3.872000000
C     0.539000000    -5.897000000     3.077000000
H     1.338000000    -6.568000000     3.383000000
C    -0.075000000    -6.033000000     1.860000000
O     0.368000000    -7.098000000     1.041000000
C     0.207000000    -7.227000000    -0.348000000
C     0.976000000    -6.388000000    -1.131000000
H     1.646000000    -5.648000000    -0.701000000
C    -0.480000000    -8.327000000    -0.918000000
H    -0.899000000    -9.056000000    -0.229000000
C    -0.713000000    -8.387000000    -2.359000000
H    -1.195000000    -9.177000000    -2.929000000
C    -0.127000000    -7.383000000    -3.071000000
H    -0.097000000    -7.417000000    -4.157000000
C     0.701000000    -6.451000000    -2.490000000
O     1.541000000    -5.819000000    -3.355000000
C     1.495000000    -4.455000000    -3.627000000
C     2.520000000    -3.860000000    -4.320000000
H     3.400000000    -4.417000000    -4.634000000
C     2.496000000    -2.538000000    -4.704000000
O     3.526000000    -2.105000000    -5.471000000
C     3.798000000    -0.753000000    -5.554000000
C     3.720000000    -0.250000000    -6.785000000
H     3.349000000    -0.925000000    -7.552000000
C     3.756000000     1.168000000    -7.050000000
H     3.555000000     1.608000000    -8.023000000
C     4.067000000     1.955000000    -5.917000000
H     4.098000000     3.035000000    -6.033000000
C     4.260000000     1.401000000    -4.660000000
C     4.135000000     0.024000000    -4.463000000
H     4.145000000    -0.418000000    -3.469000000
C     1.479000000    -1.721000000     0.896000000
H     1.796000000    -2.368000000     1.709000000
C     0.240000000    -1.067000000     0.946000000
H    -0.505000000    -1.288000000     1.707000000
C    -0.112000000    -0.137000000     0.007000000
C    -1.451000000     0.440000000    -0.088000000
H    -2.193000000    -0.175000000     0.427000000
H    -1.479000000     1.447000000     0.334000000
H    -1.760000000     0.405000000    -1.134000000
C     0.759000000     0.180000000    -1.009000000
H     0.388000000     0.802000000    -1.819000000
C     1.882000000    -0.592000000    -1.194000000
H     2.412000000    -0.540000000    -2.142000000
C     2.328000000    -1.468000000    -0.171000000
C     3.638000000    -2.203000000    -0.386000000
O     4.481000000    -1.535000000    -0.982000000
O     3.898000000    -3.273000000     0.098000000
O     4.083000000    -4.877000000     2.040000000
H     3.865000000    -4.180000000     1.421000000
H     3.994000000    -5.684000000     1.534000000
O     6.554000000    -2.512000000     1.570000000
H     5.699000000    -2.821000000     1.270000000
H     6.354000000    -1.919000000     2.294000000
O     3.290000000    -7.651000000     0.848000000
H     3.507000000    -7.895000000    -0.052000000
H     2.334000000    -7.608000000     0.861000000
O     5.250000000    -5.784000000    -6.122000000
H     4.809000000    -5.870000000    -5.277000000
H     5.796000000    -6.568000000    -6.188000000
O     4.419000000     0.874000000     0.431000000
H     3.558000000     1.216000000     0.188000000
H     4.375000000    -0.058000000     0.218000000
O     7.168000000    -7.537000000     0.394000000
H     6.355000000    -7.900000000     0.746000000
H     7.211000000    -6.652000000     0.755000000
O     5.243000000    -1.698000000     5.116000000
H     5.469000000    -1.240000000     4.307000000
H     4.877000000    -1.018000000     5.682000000
O     7.628000000    -4.925000000     1.224000000
H     7.715000000    -3.973000000     1.277000000
H     8.174000000    -5.256000000     1.937000000
O     4.467000000    -4.474000000     4.669000000
H     4.868000000    -3.606000000     4.717000000
H     4.547000000    -4.724000000     3.749000000
O     6.861000000     1.153000000    -0.934000000
H     5.955000000     1.049000000    -0.641000000
H     7.271000000     0.308000000    -0.748000000
O     5.650000000    -0.229000000     2.818000000
H     5.225000000     0.270000000     2.120000000
H     6.490000000     0.210000000     2.950000000
O     4.487000000    -6.949000000    -3.506000000
H     4.811000000    -6.436000000    -2.765000000
H     3.804000000    -7.506000000    -3.131000000
O     7.800000000     1.295000000    -3.743000000
H     7.665000000     1.290000000    -2.796000000
H     7.906000000     0.372000000    -3.975000000
O     7.379000000    -1.463000000    -4.988000000
H     7.028000000    -1.844000000    -4.183000000
H     6.964000000    -1.963000000    -5.691000000
O     8.554000000    -3.174000000    -1.638000000
H     9.091000000    -3.137000000    -2.430000000
H     7.653000000    -3.146000000    -1.959000000
O     7.381000000    -6.243000000    -2.293000000
H     8.060000000    -6.590000000    -1.714000000
H     6.579000000    -6.282000000    -1.771000000
O     5.391000000    -5.335000000    -0.836000000
H     6.165000000    -5.195000000    -0.292000000
H     4.782000000    -4.647000000    -0.568000000
O     8.276000000    -0.978000000    -0.082000000
H     8.387000000    -1.661000000    -0.744000000
H     7.667000000    -1.357000000     0.553000000
O     6.057000000    -2.945000000    -2.565000000
H     5.496000000    -3.706000000    -2.413000000
H     5.718000000    -2.275000000    -1.971000000
