218
-1453.17727
C    -0.793000000     1.653000000     5.209000000
H    -1.666000000     1.009000000     5.286000000
C    -0.560000000     2.579000000     4.195000000
C     0.698000000     3.231000000     4.154000000
H     0.818000000     4.073000000     3.477000000
C    -1.563000000     2.825000000     3.129000000
O    -2.868000000     2.437000000     3.451000000
H    -1.179000000     2.133000000     2.366000000
O    -1.592000000     4.117000000     2.444000000
C    -1.671000000     4.206000000     1.081000000
C    -0.505000000     4.517000000     0.424000000
H     0.366000000     4.674000000     1.055000000
C    -0.498000000     4.487000000    -0.958000000
O     0.738000000     4.630000000    -1.547000000
C    -1.645000000     4.166000000    -1.706000000
C    -1.630000000     4.215000000    -3.201000000
H    -2.602000000     4.546000000    -3.573000000
C    -1.224000000     2.899000000    -3.820000000
C    -2.159000000     1.909000000    -3.882000000
H    -3.177000000     2.253000000    -3.716000000
H    -0.923000000     4.961000000    -3.569000000
C    -2.829000000     4.170000000    -1.005000000
H    -3.747000000     3.935000000    -1.539000000
C    -2.866000000     4.105000000     0.382000000
C    -4.113000000     3.666000000     1.159000000
H    -5.023000000     3.892000000     0.599000000
H    -4.158000000     4.304000000     2.044000000
C    -4.254000000     2.191000000     1.490000000
C    -4.874000000     1.317000000     0.524000000
H    -5.409000000     1.776000000    -0.304000000
C    -3.540000000     1.647000000     2.536000000
C    -3.601000000     0.285000000     2.826000000
H    -3.041000000    -0.067000000     3.689000000
C    -4.226000000    -0.588000000     1.995000000
O    -4.040000000    -1.920000000     2.239000000
C    -2.931000000    -2.510000000     1.454000000
C    -1.984000000    -3.368000000     2.242000000
C    -1.313000000    -4.458000000     1.570000000
H    -1.420000000    -4.672000000     0.510000000
C    -1.721000000    -3.180000000     3.591000000
H    -2.250000000    -2.442000000     4.189000000
O    -3.394000000    -3.255000000     0.276000000
H    -2.188000000    -1.740000000     1.201000000
C    -4.793000000    -0.039000000     0.762000000
C    -5.269000000    -0.997000000    -0.287000000
H    -6.093000000    -0.652000000    -0.915000000
H    -5.640000000    -1.822000000     0.324000000
C    -4.219000000    -1.507000000    -1.159000000
C    -4.025000000    -0.777000000    -2.372000000
H    -4.558000000     0.130000000    -2.644000000
C    -3.460000000    -2.677000000    -0.903000000
C    -2.633000000    -3.132000000    -1.900000000
H    -2.068000000    -4.055000000    -1.800000000
C    -2.453000000    -2.411000000    -3.112000000
O    -1.433000000    -2.792000000    -3.905000000
C    -0.243000000    -1.954000000    -3.814000000
C     1.071000000    -2.793000000    -3.917000000
C     1.089000000    -4.059000000    -3.333000000
H     0.152000000    -4.457000000    -2.951000000
C     2.272000000    -2.235000000    -4.362000000
H     2.369000000    -1.221000000    -4.741000000
O    -0.202000000    -1.007000000    -4.887000000
H    -0.201000000    -1.486000000    -2.819000000
C    -3.148000000    -1.238000000    -3.317000000
C    -2.945000000    -0.404000000    -4.519000000
H    -3.899000000     0.096000000    -4.697000000
H    -2.588000000    -1.103000000    -5.279000000
C    -1.870000000     0.638000000    -4.213000000
C    -0.533000000     0.300000000    -4.472000000
C     0.497000000     1.243000000    -4.301000000
H     1.537000000     0.956000000    -4.429000000
C     0.143000000     2.570000000    -4.055000000
O     1.143000000     3.414000000    -3.605000000
C     1.358000000     3.440000000    -2.220000000
H     0.776000000     2.571000000    -1.879000000
C     2.853000000     3.336000000    -1.864000000
C     3.318000000     3.539000000    -0.517000000
H     2.623000000     4.038000000     0.154000000
C     3.638000000     2.565000000    -2.768000000
H     3.260000000     2.243000000    -3.735000000
C     4.913000000     2.235000000    -2.421000000
O     5.782000000     1.579000000    -3.240000000
C     5.325000000     2.469000000    -1.153000000
H     6.361000000     2.249000000    -0.911000000
C     4.645000000     3.278000000    -0.269000000
O     5.305000000     3.546000000     0.928000000
C     4.680000000     4.231000000     1.931000000
C     4.148000000     3.546000000     3.004000000
H     4.282000000     2.469000000     3.051000000
C     4.530000000     5.579000000     1.758000000
H     4.796000000     6.092000000     0.837000000
C     3.826000000     6.293000000     2.713000000
H     3.734000000     7.373000000     2.633000000
C     3.195000000     5.603000000     3.774000000
H     2.685000000     6.127000000     4.578000000
C     3.369000000     4.251000000     3.954000000
O     2.822000000     3.626000000     5.055000000
C     1.681000000     2.930000000     5.035000000
C     1.463000000     2.054000000     6.123000000
H     2.263000000     1.791000000     6.811000000
C     0.241000000     1.325000000     6.141000000
O    -0.012000000     0.420000000     7.193000000
C    -0.865000000    -0.637000000     7.149000000
C    -0.545000000    -1.720000000     6.330000000
H     0.339000000    -1.611000000     5.706000000
C    -1.844000000    -0.747000000     8.124000000
H    -2.110000000     0.072000000     8.788000000
C    -2.535000000    -1.959000000     8.190000000
H    -3.280000000    -2.129000000     8.963000000
C    -2.205000000    -3.042000000     7.355000000
H    -2.737000000    -3.989000000     7.378000000
C    -1.203000000    -2.944000000     6.455000000
O    -0.790000000    -3.952000000     5.657000000
C    -0.966000000    -4.084000000     4.325000000
C    -0.204000000    -5.052000000     3.693000000
H     0.419000000    -5.737000000     4.262000000
C    -0.446000000    -5.233000000     2.312000000
O     0.409000000    -6.097000000     1.662000000
C     0.239000000    -6.398000000     0.320000000
C     1.328000000    -6.090000000    -0.558000000
H     2.210000000    -5.586000000    -0.171000000
C    -0.872000000    -7.149000000    -0.117000000
H    -1.680000000    -7.336000000     0.586000000
C    -0.917000000    -7.615000000    -1.433000000
H    -1.850000000    -8.078000000    -1.746000000
C     0.097000000    -7.206000000    -2.275000000
H     0.043000000    -7.504000000    -3.319000000
C     1.247000000    -6.539000000    -1.820000000
O     2.198000000    -6.076000000    -2.686000000
C     2.223000000    -4.846000000    -3.347000000
C     3.396000000    -4.375000000    -3.974000000
H     4.342000000    -4.908000000    -4.020000000
C     3.416000000    -3.023000000    -4.524000000
O     4.561000000    -2.568000000    -5.223000000
C     4.749000000    -1.236000000    -5.350000000
C     4.521000000    -0.673000000    -6.603000000
H     3.934000000    -1.192000000    -7.357000000
C     4.695000000     0.732000000    -6.702000000
H     4.452000000     1.243000000    -7.631000000
C     5.299000000     1.415000000    -5.656000000
H     5.460000000     2.484000000    -5.763000000
C     5.493000000     0.848000000    -4.418000000
C     5.264000000    -0.512000000    -4.321000000
H     5.402000000    -0.885000000    -3.310000000
C     1.235000000    -1.950000000     2.233000000
H     1.287000000    -2.369000000     3.235000000
C     0.364000000    -0.929000000     1.837000000
H    -0.344000000    -0.487000000     2.534000000
C     0.384000000    -0.460000000     0.502000000
C    -0.546000000     0.602000000     0.025000000
H    -0.123000000     1.584000000     0.249000000
H    -0.678000000     0.581000000    -1.059000000
H    -1.499000000     0.611000000     0.558000000
C     1.250000000    -1.034000000    -0.415000000
H     1.286000000    -0.754000000    -1.465000000
C     2.146000000    -2.040000000    -0.063000000
H     2.841000000    -2.458000000    -0.787000000
C     2.138000000    -2.530000000     1.297000000
C     3.145000000    -3.599000000     1.692000000
O     4.214000000    -3.541000000     1.100000000
O     3.056000000    -4.261000000     2.693000000
O     6.843000000     0.723000000     1.885000000
H     6.658000000     1.646000000     2.062000000
H     6.016000000     0.372000000     1.555000000
O     3.643000000     0.099000000     1.897000000
H     4.037000000     0.153000000     2.767000000
H     2.837000000    -0.400000000     2.029000000
O     4.326000000    -8.782000000     4.428000000
H     5.275000000    -8.895000000     4.483000000
H     4.204000000    -8.105000000     3.762000000
O     6.091000000    -4.927000000     0.182000000
H     5.277000000    -4.466000000     0.387000000
H     6.420000000    -5.221000000     1.031000000
O     2.349000000    -3.791000000     5.413000000
H     2.249000000    -4.660000000     5.803000000
H     2.547000000    -3.963000000     4.492000000
O     5.228000000    -3.565000000     4.123000000
H     5.732000000    -4.377000000     4.060000000
H     4.398000000    -3.765000000     3.691000000
O     3.851000000    -6.804000000     2.454000000
H     3.455000000    -5.941000000     2.334000000
H     3.448000000    -7.349000000     1.777000000
O     3.053000000    -8.601000000     0.514000000
H     2.569000000    -8.845000000     1.303000000
H     2.489000000    -8.878000000    -0.208000000
O     5.025000000    -3.855000000     7.435000000
H     5.564000000    -3.647000000     6.671000000
H     4.335000000    -4.423000000     7.093000000
O     3.232000000    -1.329000000     6.560000000
H     3.668000000    -1.505000000     7.394000000
H     2.978000000    -2.193000000     6.236000000
O     7.886000000    -5.586000000     5.738000000
H     7.411000000    -5.497000000     4.912000000
H     8.019000000    -6.529000000     5.838000000
O     9.046000000    -4.431000000     2.027000000
H     8.303000000    -3.930000000     1.691000000
H     9.243000000    -5.061000000     1.334000000
O     5.179000000    -1.320000000     0.197000000
H     4.676000000    -2.123000000     0.325000000
H     4.657000000    -0.639000000     0.622000000
O     6.348000000    -6.146000000     3.413000000
H     5.515000000    -6.379000000     3.003000000
H     6.977000000    -6.769000000     3.049000000
O     7.242000000    -2.401000000    -1.143000000
H     7.006000000    -3.313000000    -0.977000000
H     6.574000000    -1.893000000    -0.682000000
O     6.505000000    -6.768000000    -1.902000000
H     6.230000000    -6.166000000    -1.210000000
H     6.330000000    -7.639000000    -1.545000000
O     8.875000000    -2.351000000     4.544000000
H     8.456000000    -2.719000000     5.322000000
H     8.235000000    -2.480000000     3.844000000
O     4.948000000    -0.518000000     4.750000000
H     5.404000000    -1.358000000     4.707000000
H     4.191000000    -0.686000000     5.312000000
O     6.871000000    -2.315000000     2.406000000
H     6.538000000    -1.986000000     1.572000000
H     6.088000000    -2.581000000     2.889000000
