218
-1466.40054
C     0.268000000     2.220000000     3.851000000
H    -0.541000000     1.495000000     3.889000000
C     0.146000000     3.266000000     2.972000000
C     1.170000000     4.189000000     2.878000000
H     1.175000000     5.058000000     2.225000000
C    -1.001000000     3.359000000     1.982000000
O    -2.273000000     3.186000000     2.732000000
H    -0.913000000     2.639000000     1.156000000
O    -1.052000000     4.685000000     1.268000000
C    -1.217000000     4.582000000    -0.089000000
C    -0.106000000     4.613000000    -0.942000000
H     0.899000000     4.865000000    -0.615000000
C    -0.245000000     4.296000000    -2.259000000
O     0.956000000     4.248000000    -3.006000000
C    -1.454000000     3.980000000    -2.813000000
C    -1.570000000     3.498000000    -4.257000000
H    -2.544000000     3.758000000    -4.677000000
C    -1.183000000     1.930000000    -4.270000000
C    -2.241000000     1.035000000    -4.282000000
H    -3.236000000     1.442000000    -4.442000000
H    -0.829000000     4.036000000    -4.853000000
C    -2.608000000     3.882000000    -1.962000000
H    -3.618000000     3.615000000    -2.262000000
C    -2.475000000     4.261000000    -0.588000000
C    -3.686000000     4.139000000     0.373000000
H    -4.676000000     4.319000000    -0.052000000
H    -3.602000000     4.741000000     1.280000000
C    -3.726000000     2.732000000     0.920000000
C    -4.463000000     1.795000000     0.273000000
H    -4.883000000     1.975000000    -0.713000000
C    -3.136000000     2.267000000     2.115000000
C    -3.258000000     0.981000000     2.635000000
H    -2.895000000     0.826000000     3.648000000
C    -4.142000000     0.136000000     2.019000000
O    -4.257000000    -1.168000000     2.521000000
C    -3.440000000    -2.191000000     1.902000000
C    -2.776000000    -3.104000000     2.856000000
C    -2.418000000    -4.398000000     2.546000000
H    -2.618000000    -4.865000000     1.585000000
C    -2.367000000    -2.603000000     4.082000000
H    -2.523000000    -1.562000000     4.354000000
O    -4.263000000    -2.955000000     0.991000000
H    -2.628000000    -1.690000000     1.353000000
C    -4.734000000     0.495000000     0.801000000
C    -5.537000000    -0.515000000     0.018000000
H    -6.166000000     0.167000000    -0.559000000
H    -6.150000000    -1.175000000     0.635000000
C    -4.686000000    -1.419000000    -0.840000000
C    -4.490000000    -1.081000000    -2.156000000
H    -4.984000000    -0.199000000    -2.556000000
C    -4.078000000    -2.559000000    -0.321000000
C    -3.174000000    -3.300000000    -1.053000000
H    -2.699000000    -4.230000000    -0.751000000
C    -2.910000000    -2.870000000    -2.319000000
O    -1.805000000    -3.468000000    -2.911000000
C    -0.582000000    -2.738000000    -2.915000000
C     0.602000000    -3.579000000    -2.514000000
C     0.400000000    -4.737000000    -1.764000000
H    -0.604000000    -5.101000000    -1.562000000
C     1.886000000    -3.199000000    -2.822000000
H     2.077000000    -2.293000000    -3.392000000
O    -0.470000000    -2.188000000    -4.275000000
H    -0.613000000    -1.879000000    -2.229000000
C    -3.578000000    -1.818000000    -2.906000000
C    -3.299000000    -1.336000000    -4.307000000
H    -4.229000000    -0.841000000    -4.594000000
H    -3.002000000    -2.124000000    -5.003000000
C    -2.075000000    -0.346000000    -4.307000000
C    -0.775000000    -0.807000000    -4.288000000
C     0.325000000     0.078000000    -4.275000000
H     1.377000000    -0.197000000    -4.297000000
C     0.136000000     1.430000000    -4.290000000
O     1.225000000     2.248000000    -4.213000000
C     1.537000000     2.968000000    -3.049000000
H     1.154000000     2.494000000    -2.133000000
C     3.044000000     3.068000000    -2.814000000
C     3.575000000     3.909000000    -1.863000000
H     2.977000000     4.673000000    -1.373000000
C     3.887000000     2.107000000    -3.408000000
H     3.359000000     1.386000000    -4.026000000
C     5.212000000     1.966000000    -2.999000000
O     5.997000000     0.869000000    -3.278000000
C     5.741000000     2.931000000    -2.134000000
H     6.751000000     2.913000000    -1.733000000
C     4.922000000     3.847000000    -1.541000000
O     5.493000000     4.637000000    -0.562000000
C     4.806000000     5.390000000     0.317000000
C     4.319000000     4.769000000     1.502000000
H     4.458000000     3.716000000     1.733000000
C     4.889000000     6.748000000     0.196000000
H     5.267000000     7.234000000    -0.700000000
C     4.498000000     7.594000000     1.247000000
H     4.595000000     8.675000000     1.178000000
C     3.871000000     7.000000000     2.347000000
H     3.476000000     7.711000000     3.070000000
C     3.810000000     5.583000000     2.534000000
O     3.212000000     5.116000000     3.724000000
C     2.302000000     4.100000000     3.726000000
C     2.368000000     3.100000000     4.682000000
H     3.200000000     3.044000000     5.378000000
C     1.322000000     2.123000000     4.767000000
O     1.365000000     1.212000000     5.798000000
C     0.184000000     0.587000000     6.223000000
C     0.078000000    -0.790000000     6.077000000
H     0.819000000    -1.328000000     5.490000000
C    -0.852000000     1.235000000     6.879000000
H    -0.736000000     2.293000000     7.102000000
C    -1.976000000     0.535000000     7.408000000
H    -2.791000000     1.006000000     7.951000000
C    -2.024000000    -0.876000000     7.207000000
H    -2.934000000    -1.433000000     7.416000000
C    -1.034000000    -1.533000000     6.536000000
O    -1.207000000    -2.847000000     6.184000000
C    -1.648000000    -3.293000000     5.019000000
C    -1.469000000    -4.692000000     4.704000000
H    -1.092000000    -5.387000000     5.450000000
C    -1.818000000    -5.255000000     3.450000000
O    -1.339000000    -6.513000000     3.155000000
C    -1.248000000    -6.974000000     1.850000000
C    -0.111000000    -6.518000000     1.094000000
H     0.513000000    -5.749000000     1.544000000
C    -1.875000000    -8.134000000     1.519000000
H    -2.683000000    -8.640000000     2.041000000
C    -1.567000000    -8.760000000     0.286000000
H    -2.062000000    -9.703000000     0.067000000
C    -0.599000000    -8.229000000    -0.512000000
H    -0.392000000    -8.728000000    -1.455000000
C     0.180000000    -7.189000000    -0.060000000
O     1.185000000    -6.755000000    -0.977000000
C     1.448000000    -5.512000000    -1.411000000
C     2.750000000    -5.077000000    -1.568000000
H     3.626000000    -5.675000000    -1.333000000
C     2.967000000    -3.866000000    -2.227000000
O     4.308000000    -3.525000000    -2.351000000
C     4.795000000    -2.584000000    -3.212000000
C     5.091000000    -2.971000000    -4.529000000
H     4.895000000    -3.975000000    -4.895000000
C     5.750000000    -2.083000000    -5.438000000
H     6.067000000    -2.424000000    -6.421000000
C     6.009000000    -0.737000000    -5.059000000
H     6.526000000    -0.043000000    -5.717000000
C     5.622000000    -0.361000000    -3.801000000
C     5.153000000    -1.311000000    -2.859000000
H     4.980000000    -1.043000000    -1.821000000
C     2.771000000    -1.365000000     3.333000000
H     3.232000000    -1.370000000     4.318000000
C     2.732000000    -0.276000000     2.503000000
H     3.278000000     0.589000000     2.873000000
C     2.008000000    -0.333000000     1.327000000
C     2.013000000     0.896000000     0.462000000
H     1.238000000     1.595000000     0.783000000
H     2.963000000     1.413000000     0.613000000
H     1.952000000     0.729000000    -0.616000000
C     1.312000000    -1.461000000     0.993000000
H     0.698000000    -1.522000000     0.098000000
C     1.294000000    -2.573000000     1.900000000
H     0.806000000    -3.515000000     1.663000000
C     1.944000000    -2.469000000     3.106000000
C     1.996000000    -3.693000000     4.052000000
O     1.722000000    -4.755000000     3.589000000
O     2.537000000    -3.579000000     5.096000000
O     6.455000000     0.217000000     3.650000000
H     6.232000000    -0.161000000     4.500000000
H     6.261000000     1.150000000     3.744000000
O     1.489000000    -5.321000000     6.700000000
H     1.752000000    -4.659000000     6.061000000
H     1.184000000    -6.058000000     6.170000000
O     3.711000000    -5.249000000     9.228000000
H     3.638000000    -5.606000000     8.343000000
H     4.567000000    -4.822000000     9.244000000
O     5.092000000    -4.595000000     5.492000000
H     5.427000000    -4.315000000     4.640000000
H     4.172000000    -4.329000000     5.487000000
O     3.849000000    -5.531000000     2.049000000
H     3.025000000    -5.266000000     2.457000000
H     3.758000000    -6.475000000     1.917000000
O     2.047000000    -7.273000000     3.899000000
H     1.721000000    -6.395000000     3.698000000
H     2.839000000    -7.122000000     4.415000000
O     2.769000000    -2.526000000     7.434000000
H     2.398000000    -3.148000000     8.060000000
H     2.725000000    -2.978000000     6.592000000
O     0.042000000    -7.925000000     5.619000000
H     0.473000000    -7.791000000     4.775000000
H     0.279000000    -8.818000000     5.870000000
O    -1.113000000    -5.271000000     8.277000000
H    -0.410000000    -5.054000000     7.664000000
H    -1.365000000    -4.430000000     8.659000000
O     6.075000000    -4.545000000     7.839000000
H     6.511000000    -5.397000000     7.830000000
H     5.701000000    -4.458000000     6.962000000
O     3.577000000    -8.315000000     1.711000000
H     3.453000000    -8.989000000     1.042000000
H     2.771000000    -8.340000000     2.227000000
O     4.667000000    -7.175000000     7.065000000
H     4.859000000    -6.587000000     6.334000000
H     5.497000000    -7.253000000     7.534000000
O    -2.237000000    -7.401000000     6.785000000
H    -1.578000000    -7.703000000     6.160000000
H    -1.732000000    -6.976000000     7.478000000
O     5.675000000    -3.833000000     3.069000000
H     6.209000000    -3.380000000     2.418000000
H     5.001000000    -4.281000000     2.557000000
O     8.080000000    -4.801000000     4.494000000
H     7.455000000    -4.473000000     3.846000000
H     8.497000000    -4.014000000     4.844000000
O     5.265000000    -0.904000000     1.475000000
H     4.309000000    -0.937000000     1.502000000
H     5.517000000    -0.546000000     2.326000000
O     6.122000000    -5.528000000     0.413000000
H     5.346000000    -5.545000000     0.973000000
H     6.831000000    -5.840000000     0.975000000
O     5.466000000    -1.746000000     6.273000000
H     4.798000000    -1.305000000     6.798000000
H     5.054000000    -2.565000000     6.000000000
O     3.430000000     0.225000000     7.416000000
H     2.659000000     0.729000000     7.156000000
H     3.103000000    -0.666000000     7.542000000
