218
-1474.99262
C    -0.262000000     2.111000000     5.202000000
H    -1.253000000     1.801000000     5.524000000
C    -0.027000000     2.779000000     3.941000000
C     1.309000000     2.956000000     3.542000000
H     1.480000000     3.174000000     2.491000000
C    -1.204000000     2.934000000     2.935000000
O    -2.488000000     2.683000000     3.495000000
H    -1.043000000     2.193000000     2.137000000
O    -1.222000000     4.286000000     2.389000000
C    -1.503000000     4.428000000     1.032000000
C    -0.386000000     4.602000000     0.169000000
H     0.552000000     4.761000000     0.694000000
C    -0.459000000     4.446000000    -1.169000000
O     0.672000000     4.393000000    -1.925000000
C    -1.745000000     4.277000000    -1.759000000
C    -1.857000000     4.116000000    -3.265000000
H    -2.842000000     4.492000000    -3.551000000
C    -1.613000000     2.687000000    -3.818000000
C    -2.621000000     1.789000000    -3.975000000
H    -3.588000000     2.101000000    -3.589000000
H    -1.118000000     4.804000000    -3.681000000
C    -2.904000000     4.218000000    -0.959000000
H    -3.930000000     4.034000000    -1.267000000
C    -2.743000000     4.221000000     0.457000000
C    -3.943000000     3.829000000     1.290000000
H    -4.872000000     4.108000000     0.789000000
H    -3.858000000     4.366000000     2.237000000
C    -3.995000000     2.320000000     1.670000000
C    -4.672000000     1.460000000     0.877000000
H    -5.260000000     1.900000000     0.075000000
C    -3.230000000     1.839000000     2.727000000
C    -3.269000000     0.451000000     3.025000000
H    -2.604000000     0.004000000     3.760000000
C    -3.998000000    -0.387000000     2.226000000
O    -3.894000000    -1.727000000     2.551000000
C    -2.941000000    -2.478000000     1.738000000
C    -1.996000000    -3.456000000     2.572000000
C    -1.389000000    -4.536000000     1.931000000
H    -1.650000000    -4.810000000     0.912000000
C    -1.636000000    -3.028000000     3.862000000
H    -2.099000000    -2.137000000     4.277000000
O    -3.722000000    -3.239000000     0.789000000
H    -2.299000000    -1.799000000     1.157000000
C    -4.688000000     0.090000000     1.130000000
C    -5.484000000    -0.914000000     0.334000000
H    -6.321000000    -0.419000000    -0.163000000
H    -5.926000000    -1.784000000     0.824000000
C    -4.449000000    -1.474000000    -0.733000000
C    -4.335000000    -0.840000000    -1.944000000
H    -4.914000000     0.076000000    -2.031000000
C    -3.749000000    -2.672000000    -0.486000000
C    -2.961000000    -3.190000000    -1.560000000
H    -2.450000000    -4.146000000    -1.479000000
C    -2.833000000    -2.447000000    -2.762000000
O    -1.936000000    -2.916000000    -3.671000000
C    -0.727000000    -2.146000000    -3.722000000
C     0.545000000    -3.030000000    -3.718000000
C     0.699000000    -4.154000000    -2.920000000
H    -0.131000000    -4.471000000    -2.295000000
C     1.617000000    -2.608000000    -4.515000000
H     1.511000000    -1.682000000    -5.074000000
O    -0.819000000    -1.235000000    -4.885000000
H    -0.658000000    -1.414000000    -2.904000000
C    -3.610000000    -1.362000000    -3.021000000
C    -3.587000000    -0.575000000    -4.354000000
H    -4.532000000    -0.031000000    -4.412000000
H    -3.574000000    -1.288000000    -5.181000000
C    -2.505000000     0.480000000    -4.391000000
C    -1.177000000     0.051000000    -4.577000000
C    -0.066000000     0.916000000    -4.402000000
H     0.891000000     0.405000000    -4.470000000
C    -0.276000000     2.269000000    -4.047000000
O     0.793000000     3.062000000    -3.828000000
C     1.117000000     3.171000000    -2.460000000
H     0.484000000     2.437000000    -1.940000000
C     2.614000000     3.085000000    -2.191000000
C     3.284000000     3.657000000    -1.092000000
H     2.677000000     4.293000000    -0.452000000
C     3.454000000     2.461000000    -3.128000000
H     2.949000000     2.020000000    -3.983000000
C     4.814000000     2.380000000    -2.994000000
O     5.520000000     1.601000000    -3.868000000
C     5.496000000     2.866000000    -1.904000000
H     6.575000000     2.782000000    -1.802000000
C     4.737000000     3.608000000    -1.021000000
O     5.487000000     4.193000000    -0.020000000
C     5.005000000     4.419000000     1.276000000
C     4.451000000     3.330000000     2.049000000
H     4.421000000     2.313000000     1.667000000
C     5.113000000     5.719000000     1.723000000
H     5.514000000     6.563000000     1.169000000
C     4.571000000     5.989000000     3.008000000
H     4.424000000     7.035000000     3.263000000
C     4.264000000     4.965000000     3.852000000
H     3.781000000     5.213000000     4.793000000
C     4.151000000     3.620000000     3.380000000
O     3.636000000     2.623000000     4.142000000
C     2.313000000     2.588000000     4.454000000
C     2.040000000     2.057000000     5.724000000
H     2.877000000     1.718000000     6.329000000
C     0.723000000     1.790000000     6.082000000
O     0.436000000     1.187000000     7.279000000
C    -0.231000000     0.020000000     7.332000000
C     0.239000000    -1.052000000     6.557000000
H     1.106000000    -0.873000000     5.926000000
C    -1.339000000    -0.105000000     8.096000000
H    -1.660000000     0.756000000     8.677000000
C    -2.194000000    -1.231000000     7.927000000
H    -3.073000000    -1.376000000     8.550000000
C    -1.795000000    -2.291000000     7.142000000
H    -2.317000000    -3.238000000     7.253000000
C    -0.581000000    -2.187000000     6.411000000
O    -0.150000000    -3.314000000     5.700000000
C    -0.657000000    -3.716000000     4.525000000
C    -0.166000000    -4.889000000     3.982000000
H     0.521000000    -5.538000000     4.520000000
C    -0.515000000    -5.285000000     2.716000000
O     0.249000000    -6.282000000     2.210000000
C     0.194000000    -6.653000000     0.854000000
C     1.139000000    -6.091000000    -0.037000000
H     1.816000000    -5.301000000     0.278000000
C    -0.818000000    -7.513000000     0.419000000
H    -1.558000000    -7.894000000     1.119000000
C    -0.994000000    -7.744000000    -0.949000000
H    -1.940000000    -8.203000000    -1.227000000
C    -0.007000000    -7.315000000    -1.838000000
H    -0.102000000    -7.556000000    -2.894000000
C     1.027000000    -6.493000000    -1.355000000
O     1.974000000    -6.037000000    -2.267000000
C     1.833000000    -4.994000000    -3.089000000
C     2.970000000    -4.442000000    -3.761000000
H     3.931000000    -4.938000000    -3.651000000
C     2.863000000    -3.238000000    -4.448000000
O     3.922000000    -2.806000000    -5.184000000
C     4.226000000    -1.460000000    -5.482000000
C     4.383000000    -1.148000000    -6.887000000
H     4.072000000    -1.792000000    -7.707000000
C     4.849000000     0.120000000    -7.241000000
H     4.996000000     0.376000000    -8.287000000
C     5.082000000     1.036000000    -6.175000000
H     5.522000000     2.004000000    -6.400000000
C     5.030000000     0.724000000    -4.870000000
C     4.543000000    -0.512000000    -4.541000000
H     4.499000000    -0.709000000    -3.473000000
C     0.762000000    -1.434000000     2.307000000
H     0.630000000    -1.528000000     3.382000000
C    -0.022000000    -0.489000000     1.609000000
H    -0.706000000     0.121000000     2.194000000
C     0.023000000    -0.348000000     0.270000000
C    -0.923000000     0.612000000    -0.321000000
H    -0.888000000     0.529000000    -1.410000000
H    -1.903000000     0.252000000    -0.002000000
H    -0.918000000     1.660000000    -0.015000000
C     0.762000000    -1.292000000    -0.493000000
H     0.769000000    -1.188000000    -1.574000000
C     1.526000000    -2.202000000     0.179000000
H     2.171000000    -2.866000000    -0.393000000
C     1.620000000    -2.305000000     1.572000000
C     2.722000000    -3.094000000     2.227000000
O     3.610000000    -3.604000000     1.570000000
O     2.795000000    -3.133000000     3.423000000
O     6.986000000     0.782000000     0.624000000
H     6.104000000     0.491000000     0.852000000
H     7.009000000     0.752000000    -0.333000000
O     4.165000000    -0.027000000     1.362000000
H     4.314000000    -0.079000000     2.306000000
H     3.257000000    -0.306000000     1.247000000
O     2.423000000    -8.105000000     5.048000000
H     3.189000000    -7.831000000     5.552000000
H     2.543000000    -7.699000000     4.190000000
O     5.941000000    -4.831000000     1.229000000
H     5.115000000    -4.358000000     1.334000000
H     6.616000000    -4.183000000     1.431000000
O     2.237000000    -4.675000000     6.001000000
H     2.615000000    -5.024000000     5.194000000
H     1.419000000    -4.262000000     5.724000000
O     5.432000000    -3.932000000     4.262000000
H     5.691000000    -4.691000000     3.739000000
H     4.497000000    -3.827000000     4.085000000
O     3.163000000    -5.905000000     3.418000000
H     3.142000000    -5.025000000     3.043000000
H     3.313000000    -6.482000000     2.669000000
O     3.161000000    -8.031000000     1.721000000
H     3.568000000    -8.749000000     1.236000000
H     2.304000000    -7.919000000     1.309000000
O     3.998000000    -3.190000000     7.575000000
H     4.907000000    -3.482000000     7.639000000
H     3.539000000    -3.923000000     7.164000000
O     3.446000000    -1.388000000     5.188000000
H     3.248000000    -1.671000000     6.081000000
H     3.158000000    -2.116000000     4.637000000
O     0.888000000    -4.949000000     8.461000000
H     1.640000000    -4.967000000     7.868000000
H     1.007000000    -4.149000000     8.974000000
O     8.214000000    -5.189000000     4.906000000
H     7.479000000    -5.398000000     5.482000000
H     8.895000000    -5.817000000     5.149000000
O     4.756000000    -2.129000000    -0.520000000
H     4.585000000    -2.704000000     0.225000000
H     4.431000000    -1.273000000    -0.242000000
O     6.524000000    -8.051000000     2.649000000
H     6.509000000    -8.353000000     1.741000000
H     5.903000000    -7.324000000     2.670000000
O     5.701000000    -2.871000000    -2.793000000
H     4.883000000    -3.229000000    -3.137000000
H     5.469000000    -2.531000000    -1.929000000
O     6.711000000    -6.440000000    -0.725000000
H     6.489000000    -5.802000000    -0.046000000
H     6.462000000    -7.285000000    -0.350000000
O     7.322000000    -2.003000000     5.646000000
H     6.689000000    -2.443000000     5.078000000
H     7.494000000    -1.168000000     5.210000000
O     5.285000000    -0.187000000     3.793000000
H     4.755000000    -0.619000000     4.463000000
H     5.755000000     0.501000000     4.266000000
O     6.855000000    -2.230000000     2.269000000
H     6.667000000    -1.327000000     2.523000000
H     6.297000000    -2.760000000     2.838000000
