218
-1469.69236
C     0.284000000     1.582000000     4.758000000
H    -0.541000000     1.008000000     4.345000000
C     0.600000000     2.826000000     4.245000000
C     1.844000000     3.359000000     4.525000000
H     2.172000000     4.174000000     3.885000000
C    -0.272000000     3.354000000     3.034000000
O    -1.658000000     3.541000000     3.514000000
H    -0.326000000     2.490000000     2.356000000
O     0.204000000     4.582000000     2.446000000
C     0.234000000     4.563000000     1.045000000
C     1.393000000     4.200000000     0.366000000
H     2.289000000     3.961000000     0.933000000
C     1.404000000     4.164000000    -1.043000000
O     2.583000000     3.758000000    -1.590000000
C     0.279000000     4.534000000    -1.771000000
C     0.409000000     4.537000000    -3.318000000
H    -0.268000000     5.305000000    -3.699000000
C     0.100000000     3.117000000    -3.837000000
C    -1.182000000     2.743000000    -4.162000000
H    -1.922000000     3.538000000    -4.129000000
H     1.422000000     4.876000000    -3.545000000
C    -0.897000000     4.683000000    -1.134000000
H    -1.853000000     4.754000000    -1.646000000
C    -0.915000000     4.795000000     0.281000000
C    -2.222000000     5.072000000     0.997000000
H    -2.800000000     5.720000000     0.336000000
H    -2.033000000     5.631000000     1.915000000
C    -2.988000000     3.848000000     1.467000000
C    -3.866000000     3.330000000     0.539000000
H    -4.160000000     3.971000000    -0.289000000
C    -2.601000000     3.066000000     2.629000000
C    -3.093000000     1.807000000     2.744000000
H    -2.749000000     1.295000000     3.639000000
C    -4.033000000     1.314000000     1.802000000
O    -4.605000000     0.071000000     2.101000000
C    -4.005000000    -0.957000000     1.225000000
C    -3.638000000    -2.268000000     1.946000000
C    -3.721000000    -3.495000000     1.380000000
H    -3.896000000    -3.587000000     0.312000000
C    -3.275000000    -2.126000000     3.269000000
H    -3.173000000    -1.151000000     3.739000000
O    -4.925000000    -1.235000000     0.102000000
H    -3.041000000    -0.570000000     0.864000000
C    -4.323000000     2.021000000     0.634000000
C    -5.367000000     1.526000000    -0.404000000
H    -5.872000000     2.388000000    -0.845000000
H    -6.088000000     0.916000000     0.143000000
C    -4.610000000     0.651000000    -1.329000000
C    -4.081000000     1.162000000    -2.490000000
H    -4.265000000     2.209000000    -2.716000000
C    -4.506000000    -0.730000000    -1.112000000
C    -3.695000000    -1.480000000    -1.960000000
H    -3.647000000    -2.556000000    -1.813000000
C    -3.144000000    -0.978000000    -3.137000000
O    -2.443000000    -1.929000000    -3.900000000
C    -1.000000000    -1.774000000    -3.942000000
C    -0.224000000    -3.033000000    -3.918000000
C    -0.588000000    -4.060000000    -3.048000000
H    -1.580000000    -4.005000000    -2.607000000
C     0.985000000    -3.160000000    -4.652000000
H     1.307000000    -2.416000000    -5.376000000
O    -0.733000000    -0.846000000    -5.059000000
H    -0.685000000    -1.295000000    -3.003000000
C    -3.384000000     0.393000000    -3.452000000
C    -2.896000000     1.006000000    -4.727000000
H    -3.553000000     1.830000000    -5.015000000
H    -2.988000000     0.244000000    -5.503000000
C    -1.475000000     1.401000000    -4.557000000
C    -0.466000000     0.436000000    -4.685000000
C     0.854000000     0.843000000    -4.435000000
H     1.709000000     0.217000000    -4.681000000
C     1.090000000     2.123000000    -3.969000000
O     2.415000000     2.407000000    -3.503000000
C     2.629000000     2.401000000    -2.073000000
H     1.793000000     1.859000000    -1.606000000
C     3.819000000     1.549000000    -1.628000000
C     4.059000000     1.533000000    -0.296000000
H     3.422000000     2.081000000     0.394000000
C     4.498000000     0.609000000    -2.440000000
H     4.134000000     0.440000000    -3.450000000
C     5.385000000    -0.344000000    -1.883000000
O     5.885000000    -1.414000000    -2.596000000
C     5.691000000    -0.290000000    -0.547000000
H     6.383000000    -0.917000000     0.008000000
C     5.059000000     0.651000000     0.230000000
O     5.326000000     0.736000000     1.598000000
C     5.409000000     1.870000000     2.350000000
C     4.732000000     1.923000000     3.540000000
H     4.024000000     1.149000000     3.825000000
C     6.246000000     2.875000000     1.928000000
H     6.844000000     2.888000000     1.020000000
C     6.329000000     4.046000000     2.686000000
H     6.793000000     4.980000000     2.379000000
C     5.619000000     4.114000000     3.909000000
H     5.689000000     5.067000000     4.428000000
C     4.783000000     3.122000000     4.327000000
O     3.944000000     3.209000000     5.437000000
C     2.701000000     2.720000000     5.396000000
C     2.283000000     1.633000000     6.135000000
H     2.863000000     1.274000000     6.981000000
C     1.069000000     1.057000000     5.789000000
O     0.572000000    -0.099000000     6.456000000
C    -0.724000000    -0.452000000     6.546000000
C    -1.099000000    -1.518000000     5.734000000
H    -0.348000000    -2.000000000     5.113000000
C    -1.560000000     0.224000000     7.396000000
H    -1.206000000     1.072000000     7.976000000
C    -2.861000000    -0.249000000     7.557000000
H    -3.664000000     0.174000000     8.155000000
C    -3.197000000    -1.397000000     6.832000000
H    -4.108000000    -1.985000000     6.911000000
C    -2.359000000    -2.053000000     5.965000000
O    -2.685000000    -3.199000000     5.387000000
C    -2.936000000    -3.200000000     4.041000000
C    -3.104000000    -4.473000000     3.519000000
H    -2.876000000    -5.384000000     4.065000000
C    -3.504000000    -4.618000000     2.199000000
O    -3.498000000    -5.888000000     1.705000000
C    -2.896000000    -6.162000000     0.411000000
C    -1.599000000    -5.770000000     0.009000000
H    -0.957000000    -5.158000000     0.637000000
C    -3.741000000    -6.774000000    -0.505000000
H    -4.690000000    -7.072000000    -0.068000000
C    -3.374000000    -7.042000000    -1.773000000
H    -4.048000000    -7.667000000    -2.354000000
C    -2.051000000    -6.816000000    -2.186000000
H    -1.767000000    -7.183000000    -3.168000000
C    -1.147000000    -6.130000000    -1.307000000
O     0.130000000    -5.903000000    -1.730000000
C     0.377000000    -5.019000000    -2.716000000
C     1.585000000    -5.069000000    -3.387000000
H     2.368000000    -5.811000000    -3.260000000
C     1.835000000    -4.207000000    -4.374000000
O     3.048000000    -4.339000000    -5.119000000
C     4.010000000    -3.324000000    -5.023000000
C     4.608000000    -2.901000000    -6.178000000
H     4.226000000    -3.463000000    -7.026000000
C     5.635000000    -1.968000000    -6.218000000
H     6.087000000    -1.806000000    -7.193000000
C     6.038000000    -1.447000000    -5.008000000
H     6.849000000    -0.725000000    -4.953000000
C     5.451000000    -1.844000000    -3.802000000
C     4.414000000    -2.759000000    -3.812000000
H     4.038000000    -3.097000000    -2.849000000
C     0.757000000    -2.091000000     2.063000000
H     0.833000000    -2.344000000     3.118000000
C     0.006000000    -1.003000000     1.647000000
H    -0.539000000    -0.482000000     2.430000000
C    -0.015000000    -0.566000000     0.322000000
C    -0.718000000     0.672000000    -0.068000000
H    -0.056000000     1.348000000    -0.615000000
H    -1.428000000     0.411000000    -0.855000000
H    -1.231000000     1.218000000     0.726000000
C     0.899000000    -1.145000000    -0.598000000
H     0.941000000    -0.727000000    -1.601000000
C     1.656000000    -2.260000000    -0.194000000
H     2.341000000    -2.728000000    -0.896000000
C     1.593000000    -2.695000000     1.128000000
C     2.266000000    -3.992000000     1.443000000
O     3.096000000    -4.550000000     0.738000000
O     1.819000000    -4.670000000     2.320000000
O     5.967000000    -3.890000000     1.538000000
H     6.573000000    -4.624000000     1.641000000
H     5.119000000    -4.300000000     1.369000000
O     1.612000000    -8.714000000     5.447000000
H     1.372000000    -8.081000000     4.770000000
H     2.113000000    -8.205000000     6.084000000
O     2.370000000    -9.768000000     2.619000000
H     2.269000000    -8.833000000     2.439000000
H     2.373000000    -9.829000000     3.574000000
O     0.802000000    -7.242000000     0.907000000
H     1.220000000    -6.388000000     1.010000000
H     1.024000000    -7.512000000     0.016000000
O     4.495000000    -8.674000000     4.521000000
H     4.213000000    -8.126000000     3.789000000
H     3.967000000    -8.375000000     5.262000000
O     5.494000000    -7.080000000     0.903000000
H     4.827000000    -7.193000000     0.226000000
H     6.164000000    -7.730000000     0.690000000
O    -1.896000000    -8.075000000     4.261000000
H    -1.805000000    -8.562000000     5.080000000
H    -1.047000000    -7.648000000     4.141000000
O     3.562000000    -7.127000000     2.429000000
H     4.357000000    -7.388000000     1.964000000
H     3.507000000    -6.180000000     2.295000000
O     3.756000000    -6.512000000     6.294000000
H     3.623000000    -5.890000000     5.579000000
H     3.227000000    -6.167000000     7.013000000
O     5.972000000    -3.678000000     5.012000000
H     6.863000000    -3.429000000     5.258000000
H     5.894000000    -3.414000000     4.095000000
O     3.463000000    -6.679000000    -0.876000000
H     3.253000000    -5.936000000    -0.311000000
H     2.627000000    -7.126000000    -1.005000000
O     0.453000000    -7.018000000     3.601000000
H     0.654000000    -6.098000000     3.426000000
H     0.226000000    -7.380000000     2.744000000
O     4.816000000    -1.668000000     2.839000000
H     5.061000000    -2.338000000     2.201000000
H     5.113000000    -0.846000000     2.449000000
O     5.927000000    -6.293000000    -2.447000000
H     5.114000000    -6.266000000    -1.944000000
H     6.456000000    -5.582000000    -2.086000000
O     1.512000000    -2.884000000     7.537000000
H     2.059000000    -2.736000000     6.766000000
H     1.469000000    -2.029000000     7.967000000
O     5.089000000    -0.718000000     5.904000000
H     5.828000000    -1.310000000     5.768000000
H     4.317000000    -1.250000000     5.712000000
O     7.190000000    -4.035000000    -1.785000000
H     7.982000000    -3.775000000    -2.256000000
H     6.546000000    -3.363000000    -2.010000000
O     2.433000000    -4.553000000     4.839000000
H     2.678000000    -3.635000000     4.729000000
H     1.991000000    -4.783000000     4.021000000
O     2.921000000    -1.739000000     4.674000000
H     3.602000000    -1.648000000     4.007000000
H     2.457000000    -0.902000000     4.658000000
