218
-1467.14502
C     0.317000000     0.926000000     4.217000000
H    -0.591000000     0.460000000     3.842000000
C     0.692000000     2.163000000     3.669000000
C     1.999000000     2.659000000     3.860000000
H     2.329000000     3.533000000     3.304000000
C    -0.242000000     2.765000000     2.685000000
O    -1.631000000     2.742000000     3.265000000
H    -0.407000000     2.075000000     1.843000000
O     0.164000000     4.049000000     2.204000000
C     0.058000000     4.358000000     0.875000000
C     1.201000000     4.245000000     0.175000000
H     2.141000000     4.077000000     0.693000000
C     1.145000000     4.364000000    -1.184000000
O     2.307000000     4.081000000    -1.887000000
C    -0.052000000     4.556000000    -1.854000000
C    -0.061000000     4.571000000    -3.376000000
H    -0.922000000     5.202000000    -3.608000000
C    -0.138000000     3.196000000    -3.926000000
C    -1.378000000     2.619000000    -4.249000000
H    -2.327000000     3.141000000    -4.158000000
H     0.764000000     5.116000000    -3.839000000
C    -1.277000000     4.679000000    -1.155000000
H    -2.153000000     5.006000000    -1.709000000
C    -1.205000000     4.592000000     0.264000000
C    -2.428000000     4.697000000     1.123000000
H    -3.122000000     5.366000000     0.610000000
H    -2.175000000     5.182000000     2.069000000
C    -3.086000000     3.347000000     1.373000000
C    -4.053000000     2.905000000     0.428000000
H    -4.195000000     3.493000000    -0.475000000
C    -2.685000000     2.494000000     2.419000000
C    -3.279000000     1.277000000     2.606000000
H    -2.944000000     0.696000000     3.462000000
C    -4.328000000     0.882000000     1.704000000
O    -4.811000000    -0.382000000     1.898000000
C    -4.204000000    -1.469000000     1.175000000
C    -4.028000000    -2.686000000     2.040000000
C    -3.974000000    -3.968000000     1.483000000
H    -4.106000000    -4.020000000     0.405000000
C    -3.745000000    -2.585000000     3.395000000
H    -3.823000000    -1.618000000     3.885000000
O    -5.054000000    -1.715000000     0.063000000
H    -3.218000000    -1.190000000     0.775000000
C    -4.663000000     1.645000000     0.640000000
C    -5.580000000     1.181000000    -0.452000000
H    -6.041000000     2.080000000    -0.867000000
H    -6.404000000     0.697000000     0.076000000
C    -4.789000000     0.217000000    -1.370000000
C    -4.259000000     0.838000000    -2.493000000
H    -4.566000000     1.860000000    -2.702000000
C    -4.592000000    -1.152000000    -1.150000000
C    -3.791000000    -1.890000000    -1.949000000
H    -3.543000000    -2.925000000    -1.731000000
C    -3.161000000    -1.262000000    -3.069000000
O    -2.237000000    -2.008000000    -3.734000000
C    -0.814000000    -1.650000000    -3.593000000
C     0.081000000    -2.864000000    -3.380000000
C    -0.313000000    -3.907000000    -2.557000000
H    -1.233000000    -3.742000000    -2.001000000
C     1.344000000    -2.907000000    -4.021000000
H     1.628000000    -2.106000000    -4.699000000
O    -0.558000000    -0.898000000    -4.793000000
H    -0.626000000    -1.052000000    -2.690000000
C    -3.442000000     0.093000000    -3.396000000
C    -2.909000000     0.714000000    -4.661000000
H    -3.551000000     1.557000000    -4.928000000
H    -2.894000000     0.028000000    -5.510000000
C    -1.489000000     1.267000000    -4.481000000
C    -0.418000000     0.392000000    -4.541000000
C     0.807000000     0.953000000    -4.301000000
H     1.681000000     0.313000000    -4.384000000
C     0.992000000     2.364000000    -4.012000000
O     2.310000000     2.675000000    -3.623000000
C     2.545000000     2.755000000    -2.191000000
H     1.833000000     2.033000000    -1.765000000
C     3.995000000     2.415000000    -1.871000000
C     4.721000000     3.106000000    -0.966000000
H     4.370000000     4.057000000    -0.572000000
C     4.479000000     1.138000000    -2.312000000
H     3.984000000     0.713000000    -3.181000000
C     5.664000000     0.638000000    -1.736000000
O     6.040000000    -0.634000000    -2.149000000
C     6.264000000     1.340000000    -0.719000000
H     7.144000000     0.904000000    -0.254000000
C     5.827000000     2.601000000    -0.362000000
O     6.427000000     3.347000000     0.714000000
C     5.805000000     3.648000000     1.914000000
C     5.097000000     2.820000000     2.788000000
H     4.901000000     1.789000000     2.504000000
C     6.043000000     5.001000000     2.298000000
H     6.635000000     5.666000000     1.674000000
C     5.738000000     5.413000000     3.587000000
H     5.977000000     6.402000000     3.972000000
C     5.103000000     4.510000000     4.475000000
H     4.774000000     4.857000000     5.451000000
C     4.851000000     3.199000000     4.097000000
O     4.091000000     2.410000000     4.962000000
C     2.816000000     1.993000000     4.833000000
C     2.390000000     0.786000000     5.448000000
H     3.027000000     0.232000000     6.133000000
C     1.158000000     0.231000000     5.068000000
O     0.782000000    -1.004000000     5.576000000
C    -0.419000000    -1.266000000     6.115000000
C    -1.129000000    -2.322000000     5.559000000
H    -0.563000000    -2.972000000     4.897000000
C    -1.070000000    -0.354000000     6.973000000
H    -0.521000000     0.498000000     7.364000000
C    -2.428000000    -0.577000000     7.339000000
H    -2.907000000     0.191000000     7.940000000
C    -3.104000000    -1.667000000     6.791000000
H    -4.151000000    -1.767000000     7.066000000
C    -2.453000000    -2.559000000     5.907000000
O    -3.135000000    -3.607000000     5.426000000
C    -3.389000000    -3.668000000     4.104000000
C    -3.393000000    -4.906000000     3.553000000
H    -3.282000000    -5.795000000     4.169000000
C    -3.643000000    -5.089000000     2.187000000
O    -3.438000000    -6.333000000     1.573000000
C    -2.882000000    -6.425000000     0.295000000
C    -1.529000000    -6.120000000     0.064000000
H    -0.982000000    -5.584000000     0.835000000
C    -3.582000000    -7.139000000    -0.601000000
H    -4.633000000    -7.373000000    -0.457000000
C    -2.998000000    -7.490000000    -1.818000000
H    -3.593000000    -7.983000000    -2.582000000
C    -1.711000000    -7.092000000    -2.107000000
H    -1.165000000    -7.254000000    -3.033000000
C    -1.009000000    -6.391000000    -1.127000000
O     0.258000000    -6.001000000    -1.406000000
C     0.560000000    -4.981000000    -2.303000000
C     1.812000000    -4.995000000    -2.917000000
H     2.527000000    -5.803000000    -2.786000000
C     2.173000000    -3.955000000    -3.741000000
O     3.458000000    -4.055000000    -4.236000000
C     4.332000000    -2.959000000    -4.298000000
C     4.585000000    -2.487000000    -5.550000000
H     4.144000000    -3.095000000    -6.335000000
C     5.417000000    -1.410000000    -5.700000000
H     5.666000000    -0.981000000    -6.667000000
C     5.905000000    -0.748000000    -4.604000000
H     6.492000000     0.162000000    -4.698000000
C     5.579000000    -1.287000000    -3.308000000
C     4.716000000    -2.301000000    -3.150000000
H     4.540000000    -2.818000000    -2.210000000
C     0.678000000    -1.533000000     1.466000000
H     0.381000000    -1.903000000     2.444000000
C    -0.142000000    -0.566000000     0.854000000
H    -1.093000000    -0.371000000     1.343000000
C     0.169000000     0.018000000    -0.369000000
C    -0.856000000     0.945000000    -1.004000000
H    -0.743000000     1.807000000    -0.343000000
H    -0.621000000     1.528000000    -1.896000000
H    -1.866000000     0.534000000    -1.050000000
C     1.325000000    -0.426000000    -1.046000000
H     1.439000000     0.046000000    -2.019000000
C     2.210000000    -1.326000000    -0.431000000
H     3.127000000    -1.571000000    -0.961000000
C     1.816000000    -1.985000000     0.810000000
C     2.746000000    -2.993000000     1.493000000
O     3.638000000    -3.521000000     0.890000000
O     2.598000000    -3.241000000     2.684000000
O     6.089000000    -3.079000000     1.526000000
H     6.152000000    -4.015000000     1.717000000
H     5.195000000    -2.960000000     1.205000000
O     4.031000000    -8.341000000     3.971000000
H     4.652000000    -8.389000000     4.697000000
H     4.094000000    -7.437000000     3.661000000
O     0.086000000    -8.875000000     1.591000000
H     0.661000000    -8.196000000     1.239000000
H    -0.119000000    -8.578000000     2.478000000
O     1.403000000    -6.163000000     1.406000000
H     2.137000000    -5.768000000     1.876000000
H     1.814000000    -6.742000000     0.764000000
O     3.032000000    -7.629000000    -0.431000000
H     3.748000000    -8.205000000    -0.163000000
H     2.453000000    -8.191000000    -0.946000000
O     2.827000000    -5.642000000     5.571000000
H     2.918000000    -5.818000000     4.634000000
H     3.020000000    -4.709000000     5.659000000
O     6.295000000    -5.712000000     2.331000000
H     6.323000000    -6.629000000     2.056000000
H     7.143000000    -5.561000000     2.749000000
O    -0.295000000    -7.384000000     4.733000000
H     0.020000000    -7.206000000     5.620000000
H    -0.056000000    -6.603000000     4.234000000
O    -0.116000000    -5.161000000     6.586000000
H    -0.157000000    -4.498000000     7.274000000
H     0.796000000    -5.148000000     6.295000000
O     3.708000000    -5.689000000     2.996000000
H     4.612000000    -5.767000000     2.691000000
H     3.494000000    -4.764000000     2.877000000
O     5.719000000    -5.432000000     6.428000000
H     5.297000000    -5.970000000     7.098000000
H     5.294000000    -4.577000000     6.505000000
O     7.240000000    -6.747000000    -0.731000000
H     6.299000000    -6.569000000    -0.725000000
H     7.417000000    -7.071000000    -1.614000000
O     4.628000000    -5.520000000    -1.006000000
H     4.367000000    -4.895000000    -0.329000000
H     4.112000000    -6.304000000    -0.819000000
O     0.591000000    -4.571000000     3.445000000
H     0.293000000    -4.982000000     2.634000000
H     1.330000000    -4.024000000     3.178000000
O     8.045000000    -0.945000000     1.476000000
H     7.545000000    -1.712000000     1.757000000
H     8.866000000    -1.305000000     1.139000000
O     7.567000000    -2.583000000    -0.930000000
H     7.171000000    -1.736000000    -1.134000000
H     6.922000000    -3.022000000    -0.377000000
O     5.545000000    -2.036000000     5.422000000
H     5.769000000    -1.198000000     5.017000000
H     4.609000000    -2.141000000     5.253000000
O     3.047000000    -2.781000000     5.215000000
H     3.060000000    -2.947000000     4.272000000
H     2.208000000    -2.348000000     5.370000000
O     6.108000000     0.334000000     4.334000000
H     5.363000000     0.934000000     4.348000000
H     6.781000000     0.799000000     3.836000000
