218
-1482.07012
C     0.157000000     1.014000000     4.674000000
H    -0.845000000     0.615000000     4.534000000
C     0.593000000     2.136000000     3.952000000
C     1.923000000     2.562000000     3.916000000
H     2.334000000     3.355000000     3.297000000
C    -0.439000000     2.682000000     2.979000000
O    -1.748000000     2.654000000     3.630000000
H    -0.419000000     2.030000000     2.093000000
O    -0.089000000     3.994000000     2.562000000
C    -0.134000000     4.251000000     1.208000000
C     1.103000000     4.206000000     0.527000000
H     2.105000000     4.211000000     0.948000000
C     0.992000000     4.515000000    -0.871000000
O     2.145000000     4.303000000    -1.625000000
C    -0.256000000     4.655000000    -1.515000000
C    -0.395000000     4.770000000    -3.017000000
H    -1.294000000     5.313000000    -3.316000000
C    -0.406000000     3.329000000    -3.665000000
C    -1.633000000     2.845000000    -4.055000000
H    -2.527000000     3.458000000    -3.970000000
H     0.425000000     5.303000000    -3.501000000
C    -1.406000000     4.742000000    -0.763000000
H    -2.351000000     4.947000000    -1.259000000
C    -1.341000000     4.505000000     0.574000000
C    -2.544000000     4.454000000     1.386000000
H    -3.352000000     5.017000000     0.915000000
H    -2.264000000     4.959000000     2.313000000
C    -3.142000000     3.096000000     1.742000000
C    -4.100000000     2.614000000     0.798000000
H    -4.294000000     3.189000000    -0.103000000
C    -2.841000000     2.302000000     2.871000000
C    -3.566000000     1.112000000     3.101000000
H    -3.281000000     0.498000000     3.951000000
C    -4.419000000     0.615000000     2.106000000
O    -4.852000000    -0.698000000     2.247000000
C    -4.105000000    -1.601000000     1.411000000
C    -3.716000000    -2.863000000     2.141000000
C    -3.529000000    -4.132000000     1.539000000
H    -3.883000000    -4.304000000     0.525000000
C    -3.489000000    -2.801000000     3.462000000
H    -3.696000000    -1.910000000     4.051000000
O    -4.917000000    -1.827000000     0.179000000
H    -3.155000000    -1.160000000     1.073000000
C    -4.695000000     1.359000000     0.928000000
C    -5.617000000     0.857000000    -0.166000000
H    -6.275000000     1.684000000    -0.439000000
H    -6.259000000     0.100000000     0.290000000
C    -4.908000000     0.091000000    -1.211000000
C    -4.325000000     0.750000000    -2.295000000
H    -4.475000000     1.815000000    -2.454000000
C    -4.499000000    -1.175000000    -0.962000000
C    -3.619000000    -1.852000000    -1.787000000
H    -3.303000000    -2.837000000    -1.452000000
C    -3.183000000    -1.186000000    -2.964000000
O    -2.291000000    -1.865000000    -3.789000000
C    -0.927000000    -1.416000000    -3.735000000
C     0.041000000    -2.654000000    -3.768000000
C    -0.258000000    -3.666000000    -2.865000000
H    -1.193000000    -3.620000000    -2.313000000
C     1.308000000    -2.674000000    -4.420000000
H     1.638000000    -1.914000000    -5.123000000
O    -0.534000000    -0.545000000    -4.814000000
H    -0.633000000    -0.832000000    -2.850000000
C    -3.482000000     0.150000000    -3.177000000
C    -3.149000000     0.903000000    -4.448000000
H    -3.859000000     1.722000000    -4.584000000
H    -3.324000000     0.193000000    -5.259000000
C    -1.770000000     1.546000000    -4.477000000
C    -0.582000000     0.826000000    -4.640000000
C     0.688000000     1.367000000    -4.425000000
H     1.545000000     0.710000000    -4.553000000
C     0.768000000     2.644000000    -3.897000000
O     2.022000000     3.083000000    -3.538000000
C     2.374000000     3.037000000    -2.159000000
H     1.688000000     2.299000000    -1.718000000
C     3.740000000     2.548000000    -1.901000000
C     4.395000000     2.848000000    -0.718000000
H     3.981000000     3.609000000    -0.061000000
C     4.298000000     1.540000000    -2.724000000
H     3.665000000     1.160000000    -3.522000000
C     5.519000000     0.922000000    -2.436000000
O     6.073000000     0.161000000    -3.405000000
C     6.166000000     1.210000000    -1.237000000
H     7.130000000     0.761000000    -1.014000000
C     5.616000000     2.263000000    -0.463000000
O     6.392000000     2.637000000     0.571000000
C     5.948000000     3.119000000     1.829000000
C     5.227000000     2.353000000     2.746000000
H     4.842000000     1.396000000     2.403000000
C     6.477000000     4.313000000     2.194000000
H     7.037000000     4.975000000     1.539000000
C     6.272000000     4.821000000     3.432000000
H     6.594000000     5.785000000     3.817000000
C     5.482000000     4.075000000     4.324000000
H     5.472000000     4.441000000     5.347000000
C     4.912000000     2.848000000     4.001000000
O     4.125000000     2.139000000     4.884000000
C     2.844000000     1.801000000     4.678000000
C     2.405000000     0.764000000     5.483000000
H     3.096000000     0.321000000     6.196000000
C     1.092000000     0.333000000     5.435000000
O     0.819000000    -0.867000000     6.071000000
C    -0.465000000    -1.172000000     6.439000000
C    -1.011000000    -2.357000000     6.017000000
H    -0.434000000    -2.969000000     5.329000000
C    -1.270000000    -0.239000000     7.068000000
H    -0.896000000     0.738000000     7.365000000
C    -2.593000000    -0.539000000     7.298000000
H    -3.204000000     0.244000000     7.740000000
C    -3.148000000    -1.794000000     6.884000000
H    -4.198000000    -2.063000000     6.966000000
C    -2.309000000    -2.641000000     6.160000000
O    -2.853000000    -3.742000000     5.519000000
C    -2.993000000    -3.834000000     4.195000000
C    -2.684000000    -5.061000000     3.619000000
H    -2.307000000    -5.954000000     4.111000000
C    -2.998000000    -5.216000000     2.273000000
O    -2.994000000    -6.451000000     1.653000000
C    -2.487000000    -6.627000000     0.346000000
C    -1.275000000    -6.046000000    -0.055000000
H    -0.711000000    -5.442000000     0.652000000
C    -3.347000000    -7.200000000    -0.568000000
H    -4.369000000    -7.482000000    -0.328000000
C    -2.986000000    -7.350000000    -1.915000000
H    -3.675000000    -7.746000000    -2.657000000
C    -1.729000000    -6.812000000    -2.298000000
H    -1.491000000    -6.830000000    -3.358000000
C    -0.935000000    -6.130000000    -1.416000000
O     0.333000000    -5.740000000    -1.837000000
C     0.657000000    -4.614000000    -2.594000000
C     1.855000000    -4.653000000    -3.191000000
H     2.516000000    -5.488000000    -2.972000000
C     2.245000000    -3.632000000    -4.020000000
O     3.463000000    -3.610000000    -4.661000000
C     4.195000000    -2.527000000    -4.980000000
C     4.796000000    -2.527000000    -6.269000000
H     4.488000000    -3.270000000    -7.001000000
C     5.718000000    -1.533000000    -6.582000000
H     6.051000000    -1.438000000    -7.612000000
C     6.027000000    -0.599000000    -5.614000000
H     6.797000000     0.143000000    -5.807000000
C     5.438000000    -0.582000000    -4.353000000
C     4.610000000    -1.639000000    -4.008000000
H     4.284000000    -1.746000000    -2.977000000
C     0.204000000    -1.692000000     1.755000000
H    -0.103000000    -2.173000000     2.680000000
C    -0.451000000    -0.647000000     1.179000000
H    -1.392000000    -0.290000000     1.591000000
C     0.026000000    -0.065000000     0.002000000
C    -0.827000000     1.068000000    -0.577000000
H    -1.041000000     1.005000000    -1.645000000
H    -1.830000000     1.160000000    -0.156000000
H    -0.184000000     1.943000000    -0.691000000
C     1.247000000    -0.472000000    -0.551000000
H     1.555000000     0.056000000    -1.450000000
C     1.971000000    -1.425000000     0.179000000
H     2.924000000    -1.806000000    -0.179000000
C     1.401000000    -2.091000000     1.225000000
C     2.082000000    -3.296000000     1.848000000
O     3.145000000    -3.768000000     1.451000000
O     1.552000000    -3.900000000     2.764000000
O     4.664000000    -1.679000000     2.282000000
H     4.530000000    -1.753000000     3.227000000
H     4.389000000    -2.527000000     1.934000000
O     0.701000000    -8.448000000     1.479000000
H     1.223000000    -9.225000000     1.681000000
H     1.302000000    -7.715000000     1.613000000
O     2.191000000    -6.465000000     2.337000000
H     1.950000000    -5.561000000     2.535000000
H     2.505000000    -6.437000000     1.433000000
O     3.597000000    -7.398000000     0.105000000
H     3.529000000    -8.005000000    -0.632000000
H     4.278000000    -7.774000000     0.663000000
O     3.958000000    -4.940000000     7.135000000
H     3.114000000    -5.043000000     6.694000000
H     4.406000000    -4.256000000     6.636000000
O     0.823000000    -9.154000000    -1.019000000
H     0.771000000    -9.047000000    -0.069000000
H     0.259000000    -8.464000000    -1.369000000
O     1.046000000    -7.853000000     4.443000000
H     1.889000000    -8.169000000     4.767000000
H     1.250000000    -7.445000000     3.601000000
O     7.560000000    -3.618000000     3.041000000
H     7.507000000    -2.672000000     3.181000000
H     8.474000000    -3.836000000     3.223000000
O     0.414000000    -4.107000000     8.538000000
H     0.566000000    -3.274000000     8.985000000
H     0.860000000    -4.012000000     7.697000000
O     4.652000000    -5.141000000     3.520000000
H     5.271000000    -4.443000000     3.303000000
H     3.939000000    -5.033000000     2.891000000
O     6.910000000    -5.933000000     5.360000000
H     6.241000000    -5.640000000     4.741000000
H     6.901000000    -5.272000000     6.052000000
O     7.141000000    -5.982000000     1.359000000
H     7.270000000    -5.582000000     0.499000000
H     7.222000000    -5.254000000     1.976000000
O     4.287000000    -5.045000000    -0.767000000
H     3.967000000    -5.903000000    -0.489000000
H     3.717000000    -4.420000000    -0.319000000
O     5.319000000    -7.616000000     2.729000000
H     5.977000000    -7.100000000     2.265000000
H     4.813000000    -6.972000000     3.223000000
O     1.481000000    -5.161000000     5.506000000
H     1.315000000    -6.055000000     5.207000000
H     1.312000000    -4.616000000     4.737000000
O     6.849000000    -1.438000000     0.853000000
H     6.018000000    -1.393000000     1.327000000
H     6.625000000    -1.847000000     0.017000000
O     6.224000000    -3.166000000    -1.644000000
H     5.545000000    -3.829000000    -1.520000000
H     6.590000000    -3.357000000    -2.508000000
O     5.245000000    -2.861000000     6.005000000
H     5.800000000    -2.115000000     6.231000000
H     4.500000000    -2.475000000     5.545000000
O     2.878000000    -2.231000000     4.517000000
H     2.187000000    -1.807000000     5.027000000
H     2.411000000    -2.822000000     3.926000000
