218
-1458.04393
C     1.124000000     0.745000000     4.548000000
H     0.052000000     0.571000000     4.501000000
C     1.709000000     1.721000000     3.766000000
C     3.111000000     1.848000000     3.714000000
H     3.494000000     2.612000000     3.044000000
C     0.882000000     2.518000000     2.855000000
O    -0.442000000     2.737000000     3.415000000
H     0.795000000     2.116000000     1.835000000
O     1.444000000     3.822000000     2.549000000
C     1.297000000     4.168000000     1.211000000
C     2.374000000     3.915000000     0.367000000
H     3.252000000     3.361000000     0.686000000
C     2.286000000     4.109000000    -0.986000000
O     3.302000000     3.570000000    -1.724000000
C     1.110000000     4.641000000    -1.597000000
C     0.998000000     4.675000000    -3.131000000
H     0.419000000     5.541000000    -3.458000000
C     0.354000000     3.408000000    -3.605000000
C    -1.014000000     3.272000000    -3.959000000
H    -1.654000000     4.147000000    -4.038000000
H     1.952000000     4.857000000    -3.631000000
C     0.061000000     4.969000000    -0.720000000
H    -0.880000000     5.376000000    -1.081000000
C     0.150000000     4.810000000     0.677000000
C    -1.034000000     4.985000000     1.533000000
H    -1.684000000     5.805000000     1.223000000
H    -0.783000000     5.358000000     2.529000000
C    -1.950000000     3.789000000     1.790000000
C    -3.110000000     3.716000000     0.976000000
H    -3.235000000     4.430000000     0.166000000
C    -1.588000000     2.710000000     2.644000000
C    -2.572000000     1.791000000     2.926000000
H    -2.396000000     0.998000000     3.649000000
C    -3.696000000     1.715000000     2.119000000
O    -4.494000000     0.620000000     2.285000000
C    -4.366000000    -0.546000000     1.427000000
C    -4.214000000    -1.841000000     2.233000000
C    -4.269000000    -3.084000000     1.648000000
H    -4.589000000    -3.236000000     0.620000000
C    -3.802000000    -1.758000000     3.579000000
H    -3.772000000    -0.824000000     4.134000000
O    -5.482000000    -0.494000000     0.379000000
H    -3.411000000    -0.408000000     0.900000000
C    -3.995000000     2.652000000     1.141000000
C    -5.189000000     2.444000000     0.228000000
H    -5.405000000     3.394000000    -0.265000000
H    -6.038000000     2.045000000     0.787000000
C    -4.902000000     1.494000000    -0.930000000
C    -4.231000000     2.025000000    -2.002000000
H    -4.161000000     3.109000000    -2.052000000
C    -5.035000000     0.113000000    -0.769000000
C    -4.598000000    -0.754000000    -1.707000000
H    -4.886000000    -1.801000000    -1.657000000
C    -3.860000000    -0.209000000    -2.747000000
O    -3.214000000    -1.063000000    -3.596000000
C    -1.755000000    -1.165000000    -3.511000000
C    -1.293000000    -2.606000000    -3.494000000
C    -2.066000000    -3.617000000    -3.006000000
H    -3.068000000    -3.428000000    -2.630000000
C     0.000000000    -2.925000000    -3.887000000
H     0.500000000    -2.139000000    -4.448000000
O    -1.169000000    -0.433000000    -4.559000000
H    -1.553000000    -0.709000000    -2.530000000
C    -3.689000000     1.154000000    -2.899000000
C    -3.066000000     1.654000000    -4.188000000
H    -3.583000000     2.542000000    -4.559000000
H    -3.283000000     1.001000000    -5.036000000
C    -1.554000000     1.964000000    -4.137000000
C    -0.706000000     0.862000000    -4.245000000
C     0.687000000     1.070000000    -4.127000000
H     1.342000000     0.233000000    -4.356000000
C     1.187000000     2.317000000    -3.745000000
O     2.493000000     2.372000000    -3.614000000
C     3.067000000     2.302000000    -2.304000000
H     2.282000000     1.860000000    -1.672000000
C     4.266000000     1.415000000    -2.151000000
C     5.167000000     1.596000000    -1.069000000
H     5.196000000     2.495000000    -0.458000000
C     4.424000000     0.279000000    -2.963000000
H     3.768000000    -0.008000000    -3.781000000
C     5.492000000    -0.571000000    -2.719000000
O     5.604000000    -1.647000000    -3.520000000
C     6.339000000    -0.392000000    -1.712000000
H     7.202000000    -1.047000000    -1.628000000
C     6.158000000     0.652000000    -0.866000000
O     7.118000000     0.763000000     0.124000000
C     6.886000000     1.555000000     1.316000000
C     6.019000000     1.085000000     2.324000000
H     5.436000000     0.171000000     2.246000000
C     7.670000000     2.649000000     1.510000000
H     8.453000000     2.978000000     0.832000000
C     7.663000000     3.272000000     2.743000000
H     8.371000000     4.066000000     2.962000000
C     6.859000000     2.794000000     3.756000000
H     6.905000000     3.240000000     4.746000000
C     6.019000000     1.732000000     3.557000000
O     5.228000000     1.252000000     4.593000000
C     3.900000000     1.054000000     4.530000000
C     3.302000000     0.088000000     5.375000000
H     3.988000000    -0.541000000     5.938000000
C     1.878000000    -0.054000000     5.388000000
O     1.337000000    -0.984000000     6.218000000
C    -0.004000000    -0.927000000     6.478000000
C    -0.908000000    -1.845000000     5.928000000
H    -0.454000000    -2.668000000     5.382000000
C    -0.590000000     0.172000000     7.171000000
H     0.009000000     0.966000000     7.609000000
C    -1.937000000     0.238000000     7.391000000
H    -2.447000000     1.103000000     7.807000000
C    -2.782000000    -0.622000000     6.802000000
H    -3.855000000    -0.520000000     6.941000000
C    -2.298000000    -1.710000000     6.073000000
O    -3.140000000    -2.696000000     5.577000000
C    -3.423000000    -2.883000000     4.268000000
C    -3.356000000    -4.101000000     3.654000000
H    -3.053000000    -4.968000000     4.234000000
C    -3.789000000    -4.186000000     2.334000000
O    -3.865000000    -5.480000000     1.945000000
C    -4.099000000    -5.792000000     0.596000000
C    -3.087000000    -5.609000000    -0.256000000
H    -2.147000000    -5.123000000    -0.008000000
C    -5.317000000    -6.386000000     0.199000000
H    -6.107000000    -6.562000000     0.924000000
C    -5.463000000    -6.822000000    -1.111000000
H    -6.405000000    -7.310000000    -1.349000000
C    -4.497000000    -6.490000000    -2.054000000
H    -4.457000000    -6.940000000    -3.042000000
C    -3.244000000    -5.957000000    -1.608000000
O    -2.288000000    -5.981000000    -2.535000000
C    -1.582000000    -4.922000000    -2.920000000
C    -0.257000000    -5.233000000    -3.287000000
H     0.229000000    -6.204000000    -3.240000000
C     0.553000000    -4.204000000    -3.844000000
O     1.862000000    -4.575000000    -4.161000000
C     2.822000000    -3.707000000    -4.692000000
C     2.680000000    -3.304000000    -6.033000000
H     1.919000000    -3.622000000    -6.742000000
C     3.568000000    -2.402000000    -6.558000000
H     3.328000000    -2.153000000    -7.589000000
C     4.553000000    -1.720000000    -5.730000000
H     5.286000000    -1.051000000    -6.172000000
C     4.620000000    -2.164000000    -4.418000000
C     3.802000000    -3.170000000    -3.908000000
H     3.937000000    -3.416000000    -2.857000000
C    -0.252000000    -2.448000000     0.759000000
H    -0.856000000    -3.037000000     1.444000000
C    -0.699000000    -1.166000000     0.585000000
H    -1.511000000    -0.809000000     1.214000000
C    -0.022000000    -0.362000000    -0.272000000
C    -0.545000000     1.089000000    -0.480000000
H    -0.849000000     1.523000000     0.475000000
H     0.185000000     1.806000000    -0.860000000
H    -1.416000000     1.125000000    -1.138000000
C     1.066000000    -0.872000000    -0.993000000
H     1.520000000    -0.289000000    -1.790000000
C     1.492000000    -2.176000000    -0.842000000
H     2.219000000    -2.556000000    -1.555000000
C     0.838000000    -2.994000000     0.057000000
C     1.319000000    -4.381000000     0.328000000
O     2.403000000    -4.708000000    -0.100000000
O     0.676000000    -5.101000000     1.012000000
O     1.016000000    -9.820000000    -3.195000000
H     1.196000000   -10.344000000    -3.976000000
H     1.765000000    -9.228000000    -3.127000000
O     2.547000000    -1.820000000     2.736000000
H     2.055000000    -1.808000000     1.915000000
H     2.089000000    -2.461000000     3.280000000
O     1.599000000    -6.831000000     2.856000000
H     2.472000000    -6.443000000     2.800000000
H     1.122000000    -6.454000000     2.117000000
O     0.712000000    -9.445000000     3.820000000
H     0.889000000    -8.609000000     3.388000000
H     0.443000000    -9.204000000     4.706000000
O     0.739000000    -7.651000000    -0.115000000
H     0.525000000    -6.890000000     0.425000000
H     1.479000000    -7.365000000    -0.650000000
O    -0.342000000    -5.849000000     5.479000000
H    -0.088000000    -5.084000000     4.963000000
H    -0.966000000    -5.509000000     6.120000000
O     2.976000000    -9.676000000    -0.513000000
H     3.262000000    -8.831000000    -0.167000000
H     2.041000000    -9.713000000    -0.312000000
O     6.896000000    -2.817000000     1.576000000
H     7.629000000    -3.267000000     1.156000000
H     6.117000000    -3.191000000     1.163000000
O     3.258000000    -7.845000000    -3.390000000
H     3.879000000    -8.207000000    -4.022000000
H     2.411000000    -7.888000000    -3.835000000
O     4.820000000    -4.107000000     0.610000000
H     5.121000000    -4.685000000    -0.091000000
H     3.874000000    -4.042000000     0.477000000
O     1.352000000    -4.041000000     3.987000000
H     0.768000000    -4.268000000     3.263000000
H     2.138000000    -4.567000000     3.833000000
O     4.052000000    -5.498000000     3.061000000
H     4.633000000    -5.412000000     2.305000000
H     4.490000000    -6.131000000     3.630000000
O    -1.561000000    -9.093000000     0.297000000
H    -1.545000000    -9.583000000    -0.525000000
H    -0.804000000    -8.510000000     0.243000000
O     3.578000000    -6.878000000    -0.757000000
H     3.010000000    -6.152000000    -0.500000000
H     3.493000000    -6.923000000    -1.710000000
O     5.498000000    -6.992000000     1.109000000
H     4.812000000    -6.841000000     0.458000000
H     5.283000000    -7.844000000     1.491000000
O    -1.981000000    -7.632000000     2.457000000
H    -1.423000000    -6.858000000     2.530000000
H    -1.751000000    -8.015000000     1.611000000
O     7.026000000    -5.928000000    -0.679000000
H     7.335000000    -6.525000000    -1.361000000
H     6.474000000    -6.472000000    -0.117000000
O     4.937000000    -2.864000000     3.845000000
H     4.731000000    -3.780000000     3.663000000
H     4.245000000    -2.370000000     3.405000000
O     6.006000000    -8.421000000    -2.251000000
H     6.262000000    -8.490000000    -3.171000000
H     5.067000000    -8.234000000    -2.278000000
