218
-1466.03815
C     1.284000000     3.147000000     4.392000000
H     0.254000000     3.418000000     4.613000000
C     1.726000000     3.455000000     3.094000000
C     3.131000000     3.358000000     2.795000000
H     3.456000000     3.545000000     1.775000000
C     0.767000000     3.985000000     2.057000000
O    -0.366000000     4.675000000     2.605000000
H     0.292000000     3.111000000     1.586000000
O     1.357000000     4.864000000     1.045000000
C     1.084000000     4.667000000    -0.300000000
C     2.063000000     3.892000000    -1.068000000
H     2.943000000     3.480000000    -0.582000000
C     1.799000000     3.594000000    -2.396000000
O     2.761000000     2.825000000    -3.141000000
C     0.579000000     3.976000000    -2.935000000
C     0.207000000     3.557000000    -4.345000000
H    -0.508000000     4.280000000    -4.742000000
C    -0.314000000     2.147000000    -4.410000000
C    -1.665000000     1.887000000    -4.114000000
H    -2.338000000     2.664000000    -3.759000000
H     1.054000000     3.761000000    -5.004000000
C    -0.405000000     4.519000000    -2.130000000
H    -1.376000000     4.635000000    -2.604000000
C    -0.178000000     4.941000000    -0.840000000
C    -1.297000000     5.656000000    -0.085000000
H    -2.033000000     6.073000000    -0.775000000
H    -0.934000000     6.483000000     0.529000000
C    -2.006000000     4.644000000     0.806000000
C    -3.109000000     4.002000000     0.285000000
H    -3.543000000     4.401000000    -0.628000000
C    -1.580000000     4.257000000     2.070000000
C    -2.129000000     3.126000000     2.723000000
H    -1.611000000     2.775000000     3.612000000
C    -3.212000000     2.454000000     2.156000000
O    -3.540000000     1.302000000     2.789000000
C    -3.434000000    -0.010000000     2.084000000
C    -2.979000000    -1.121000000     3.021000000
C    -3.461000000    -2.458000000     2.951000000
H    -4.255000000    -2.792000000     2.288000000
C    -2.117000000    -0.856000000     4.081000000
H    -1.771000000     0.168000000     4.203000000
O    -4.653000000    -0.265000000     1.383000000
H    -2.562000000     0.165000000     1.436000000
C    -3.772000000     2.958000000     0.944000000
C    -4.997000000     2.351000000     0.238000000
H    -5.336000000     3.081000000    -0.499000000
H    -5.701000000     2.136000000     1.044000000
C    -4.719000000     1.043000000    -0.514000000
C    -4.495000000     1.172000000    -1.918000000
H    -4.635000000     2.122000000    -2.428000000
C    -4.512000000    -0.192000000     0.009000000
C    -4.109000000    -1.336000000    -0.697000000
H    -3.873000000    -2.257000000    -0.168000000
C    -3.751000000    -1.157000000    -2.047000000
O    -3.308000000    -2.259000000    -2.737000000
C    -1.883000000    -2.355000000    -2.921000000
C    -1.381000000    -3.749000000    -2.623000000
C    -2.012000000    -4.661000000    -1.811000000
H    -3.009000000    -4.349000000    -1.510000000
C    -0.052000000    -4.032000000    -2.918000000
H     0.569000000    -3.395000000    -3.542000000
O    -1.451000000    -1.890000000    -4.203000000
H    -1.425000000    -1.729000000    -2.141000000
C    -3.976000000     0.110000000    -2.619000000
C    -3.575000000     0.331000000    -4.107000000
H    -4.047000000     1.259000000    -4.436000000
H    -4.032000000    -0.433000000    -4.739000000
C    -2.093000000     0.590000000    -4.252000000
C    -1.163000000    -0.463000000    -4.334000000
C     0.203000000    -0.178000000    -4.567000000
H     0.937000000    -0.969000000    -4.699000000
C     0.578000000     1.121000000    -4.678000000
O     1.908000000     1.244000000    -4.687000000
C     2.533000000     1.417000000    -3.393000000
H     1.662000000     1.103000000    -2.800000000
C     3.750000000     0.569000000    -3.119000000
C     4.488000000     0.886000000    -2.026000000
H     4.346000000     1.787000000    -1.435000000
C     4.028000000    -0.566000000    -3.889000000
H     3.391000000    -0.824000000    -4.731000000
C     4.998000000    -1.456000000    -3.437000000
O     5.340000000    -2.611000000    -4.088000000
C     5.761000000    -1.098000000    -2.328000000
H     6.542000000    -1.793000000    -2.029000000
C     5.471000000     0.052000000    -1.587000000
O     6.181000000     0.248000000    -0.452000000
C     6.207000000     1.455000000     0.223000000
C     5.638000000     1.464000000     1.550000000
H     5.219000000     0.526000000     1.904000000
C     6.782000000     2.616000000    -0.238000000
H     7.180000000     2.647000000    -1.250000000
C     6.879000000     3.764000000     0.522000000
H     7.228000000     4.703000000     0.098000000
C     6.466000000     3.758000000     1.897000000
H     6.441000000     4.707000000     2.426000000
C     5.767000000     2.612000000     2.376000000
O     5.309000000     2.660000000     3.634000000
C     4.014000000     2.870000000     3.782000000
C     3.541000000     2.489000000     5.032000000
H     4.224000000     2.034000000     5.745000000
C     2.192000000     2.644000000     5.343000000
O     1.787000000     2.240000000     6.620000000
C     0.573000000     1.635000000     6.824000000
C     0.402000000     0.304000000     6.325000000
H     1.168000000    -0.200000000     5.742000000
C    -0.394000000     2.202000000     7.600000000
H    -0.302000000     3.132000000     8.155000000
C    -1.559000000     1.473000000     7.898000000
H    -2.326000000     1.890000000     8.547000000
C    -1.780000000     0.180000000     7.349000000
H    -2.715000000    -0.359000000     7.478000000
C    -0.797000000    -0.350000000     6.549000000
O    -0.927000000    -1.598000000     6.039000000
C    -1.680000000    -1.905000000     4.889000000
C    -2.137000000    -3.174000000     4.742000000
H    -1.613000000    -3.930000000     5.319000000
C    -3.074000000    -3.507000000     3.799000000
O    -3.503000000    -4.812000000     3.656000000
C    -3.813000000    -5.326000000     2.481000000
C    -2.745000000    -5.646000000     1.588000000
H    -1.761000000    -5.216000000     1.758000000
C    -5.076000000    -5.725000000     2.207000000
H    -5.918000000    -5.542000000     2.871000000
C    -5.350000000    -6.511000000     1.086000000
H    -6.345000000    -6.908000000     0.901000000
C    -4.304000000    -6.866000000     0.290000000
H    -4.483000000    -7.486000000    -0.585000000
C    -3.038000000    -6.386000000     0.456000000
O    -2.111000000    -6.741000000    -0.532000000
C    -1.468000000    -5.831000000    -1.329000000
C    -0.165000000    -6.128000000    -1.709000000
H     0.352000000    -7.052000000    -1.462000000
C     0.496000000    -5.248000000    -2.544000000
O     1.766000000    -5.693000000    -2.940000000
C     2.632000000    -5.073000000    -3.880000000
C     2.339000000    -5.186000000    -5.261000000
H     1.674000000    -5.981000000    -5.589000000
C     3.169000000    -4.635000000    -6.192000000
H     3.060000000    -4.785000000    -7.263000000
C     4.077000000    -3.724000000    -5.777000000
H     4.713000000    -3.195000000    -6.482000000
C     4.306000000    -3.492000000    -4.419000000
C     3.515000000    -4.096000000    -3.480000000
H     3.570000000    -3.864000000    -2.419000000
C     1.682000000    -0.175000000     2.314000000
H     2.389000000     0.288000000     2.999000000
C     1.161000000     0.468000000     1.171000000
H     1.442000000     1.488000000     0.922000000
C     0.276000000    -0.125000000     0.351000000
C    -0.277000000     0.633000000    -0.877000000
H    -1.366000000     0.598000000    -0.805000000
H    -0.188000000     1.720000000    -0.836000000
H     0.096000000     0.167000000    -1.791000000
C    -0.025000000    -1.485000000     0.570000000
H    -0.669000000    -1.983000000    -0.150000000
C     0.551000000    -2.144000000     1.667000000
H     0.242000000    -3.182000000     1.761000000
C     1.320000000    -1.501000000     2.630000000
C     1.821000000    -2.300000000     3.837000000
O     1.270000000    -3.371000000     3.978000000
O     2.644000000    -1.834000000     4.520000000
O     1.081000000    -4.648000000     6.212000000
H     0.585000000    -5.392000000     5.869000000
H     1.215000000    -4.079000000     5.454000000
O     2.669000000    -2.119000000     7.114000000
H     1.873000000    -1.697000000     7.438000000
H     2.586000000    -2.087000000     6.161000000
O    -0.185000000    -5.962000000     3.872000000
H     0.313000000    -5.171000000     3.665000000
H     0.476000000    -6.650000000     3.942000000
O     1.853000000     0.945000000     9.872000000
H     1.651000000     0.134000000     9.405000000
H     1.953000000     0.677000000    10.785000000
O     5.799000000    -5.184000000     1.543000000
H     6.422000000    -5.124000000     2.268000000
H     6.219000000    -5.770000000     0.914000000
O     3.081000000    -5.532000000     2.981000000
H     2.587000000    -4.742000000     3.198000000
H     3.886000000    -5.209000000     2.577000000
O     5.071000000    -6.687000000     6.115000000
H     5.097000000    -6.368000000     5.212000000
H     4.665000000    -5.974000000     6.609000000
O     6.739000000    -4.806000000     4.220000000
H     6.145000000    -4.068000000     4.358000000
H     7.301000000    -4.808000000     4.995000000
O     5.147000000    -2.693000000     4.044000000
H     5.393000000    -2.424000000     3.159000000
H     4.238000000    -2.407000000     4.138000000
O     6.003000000    -1.848000000     1.500000000
H     6.639000000    -2.472000000     1.150000000
H     6.010000000    -1.123000000     0.875000000
O    -4.525000000    -1.575000000     6.048000000
H    -4.938000000    -0.711000000     6.066000000
H    -3.767000000    -1.465000000     5.474000000
O     5.231000000    -1.529000000     8.201000000
H     4.391000000    -1.617000000     7.751000000
H     5.883000000    -1.748000000     7.536000000
O     3.946000000    -3.689000000     0.069000000
H     4.690000000    -4.242000000     0.309000000
H     3.954000000    -2.983000000     0.715000000
O     7.500000000    -1.024000000     5.261000000
H     8.250000000    -1.438000000     4.836000000
H     6.747000000    -1.540000000     4.974000000
O     0.408000000    -1.557000000     9.197000000
H     0.629000000    -2.069000000     9.975000000
H    -0.138000000    -2.143000000     8.673000000
O     3.560000000    -4.769000000     7.334000000
H     2.673000000    -5.094000000     7.182000000
H     3.463000000    -3.818000000     7.375000000
O     0.077000000    -5.031000000     9.007000000
H    -0.292000000    -5.852000000     8.682000000
H     0.310000000    -4.544000000     8.217000000
O     2.038000000    -7.828000000     4.189000000
H     2.698000000    -8.377000000     4.613000000
H     2.457000000    -6.971000000     4.109000000
O     2.241000000    -6.452000000     0.424000000
H     2.544000000    -6.301000000     1.319000000
H     2.305000000    -5.596000000     0.001000000
