218
-1455.96320
C     0.466000000     2.918000000     3.990000000
H    -0.585000000     2.755000000     4.214000000
C     0.845000000     3.571000000     2.819000000
C     2.196000000     3.778000000     2.612000000
H     2.556000000     4.148000000     1.655000000
C    -0.149000000     3.891000000     1.687000000
O    -1.434000000     4.432000000     2.253000000
H    -0.304000000     2.941000000     1.155000000
O     0.277000000     4.852000000     0.664000000
C     0.092000000     4.521000000    -0.654000000
C     1.116000000     4.171000000    -1.514000000
H     2.108000000     4.041000000    -1.091000000
C     0.946000000     3.786000000    -2.807000000
O     2.008000000     3.208000000    -3.501000000
C    -0.312000000     3.939000000    -3.393000000
C    -0.579000000     3.375000000    -4.792000000
H    -1.520000000     3.821000000    -5.120000000
C    -0.736000000     1.813000000    -4.798000000
C    -1.999000000     1.215000000    -4.563000000
H    -2.867000000     1.850000000    -4.406000000
H     0.213000000     3.626000000    -5.500000000
C    -1.441000000     4.295000000    -2.544000000
H    -2.421000000     4.320000000    -3.014000000
C    -1.203000000     4.634000000    -1.183000000
C    -2.316000000     5.150000000    -0.350000000
H    -2.980000000     5.729000000    -0.995000000
H    -1.844000000     5.889000000     0.301000000
C    -2.952000000     4.054000000     0.425000000
C    -4.110000000     3.361000000     0.037000000
H    -4.503000000     3.599000000    -0.948000000
C    -2.515000000     3.825000000     1.734000000
C    -3.035000000     2.791000000     2.514000000
H    -2.615000000     2.457000000     3.459000000
C    -4.016000000     1.987000000     1.971000000
O    -4.228000000     0.833000000     2.661000000
C    -3.394000000    -0.295000000     2.282000000
C    -3.119000000    -1.070000000     3.589000000
C    -2.936000000    -2.484000000     3.558000000
H    -3.114000000    -2.931000000     2.583000000
C    -2.966000000    -0.494000000     4.856000000
H    -3.174000000     0.570000000     4.940000000
O    -4.273000000    -1.094000000     1.529000000
H    -2.518000000     0.051000000     1.714000000
C    -4.644000000     2.235000000     0.739000000
C    -5.550000000     1.246000000     0.101000000
H    -6.181000000     1.555000000    -0.734000000
H    -6.207000000     0.706000000     0.786000000
C    -4.616000000     0.175000000    -0.577000000
C    -4.444000000     0.223000000    -1.990000000
H    -5.056000000     0.948000000    -2.520000000
C    -4.125000000    -0.939000000     0.150000000
C    -3.428000000    -1.930000000    -0.587000000
H    -3.062000000    -2.822000000    -0.086000000
C    -3.185000000    -1.868000000    -1.930000000
O    -2.467000000    -2.852000000    -2.603000000
C    -1.138000000    -2.618000000    -2.963000000
C    -0.198000000    -3.728000000    -2.464000000
C    -0.274000000    -4.220000000    -1.134000000
H    -0.992000000    -3.671000000    -0.530000000
C     0.805000000    -4.249000000    -3.265000000
H     0.882000000    -3.940000000    -4.305000000
O    -1.074000000    -2.395000000    -4.361000000
H    -0.769000000    -1.724000000    -2.440000000
C    -3.652000000    -0.739000000    -2.641000000
C    -3.496000000    -0.620000000    -4.114000000
H    -4.216000000     0.062000000    -4.571000000
H    -3.597000000    -1.611000000    -4.561000000
C    -2.161000000    -0.143000000    -4.495000000
C    -1.057000000    -1.012000000    -4.778000000
C     0.141000000    -0.485000000    -5.200000000
H     1.018000000    -1.093000000    -5.408000000
C     0.336000000     0.935000000    -5.074000000
O     1.662000000     1.324000000    -4.996000000
C     2.078000000     1.767000000    -3.639000000
H     1.312000000     1.371000000    -2.956000000
C     3.344000000     1.011000000    -3.227000000
C     3.807000000     1.107000000    -1.885000000
H     3.247000000     1.666000000    -1.140000000
C     3.889000000    -0.034000000    -4.059000000
H     3.617000000    -0.248000000    -5.089000000
C     4.915000000    -0.821000000    -3.515000000
O     5.455000000    -1.762000000    -4.338000000
C     5.371000000    -0.762000000    -2.140000000
H     6.076000000    -1.494000000    -1.752000000
C     4.783000000     0.196000000    -1.372000000
O     5.129000000     0.229000000    -0.072000000
C     5.463000000     1.375000000     0.537000000
C     4.707000000     1.838000000     1.631000000
H     3.805000000     1.316000000     1.940000000
C     6.566000000     2.072000000     0.066000000
H     7.241000000     1.610000000    -0.650000000
C     6.891000000     3.281000000     0.782000000
H     7.699000000     3.947000000     0.491000000
C     6.143000000     3.752000000     1.761000000
H     6.386000000     4.715000000     2.202000000
C     5.101000000     2.988000000     2.262000000
O     4.448000000     3.508000000     3.322000000
C     3.131000000     3.398000000     3.554000000
C     2.709000000     2.901000000     4.773000000
H     3.438000000     2.787000000     5.571000000
C     1.351000000     2.676000000     5.026000000
O     1.021000000     2.447000000     6.390000000
C    -0.277000000     2.255000000     6.806000000
C    -0.697000000     0.901000000     6.756000000
H    -0.049000000     0.094000000     6.424000000
C    -1.102000000     3.270000000     7.249000000
H    -0.727000000     4.290000000     7.223000000
C    -2.365000000     2.938000000     7.695000000
H    -3.024000000     3.763000000     7.952000000
C    -2.817000000     1.639000000     7.705000000
H    -3.841000000     1.307000000     7.855000000
C    -1.947000000     0.590000000     7.322000000
O    -2.414000000    -0.742000000     7.226000000
C    -2.578000000    -1.286000000     5.973000000
C    -2.283000000    -2.612000000     5.836000000
H    -1.928000000    -3.180000000     6.692000000
C    -2.398000000    -3.213000000     4.615000000
O    -2.148000000    -4.564000000     4.449000000
C    -1.952000000    -5.238000000     3.243000000
C    -0.791000000    -5.005000000     2.529000000
H    -0.016000000    -4.322000000     2.867000000
C    -2.965000000    -5.981000000     2.666000000
H    -3.910000000    -6.061000000     3.197000000
C    -2.775000000    -6.467000000     1.359000000
H    -3.614000000    -6.870000000     0.797000000
C    -1.603000000    -6.283000000     0.629000000
H    -1.454000000    -6.682000000    -0.371000000
C    -0.574000000    -5.600000000     1.283000000
O     0.646000000    -5.478000000     0.693000000
C     0.648000000    -5.078000000    -0.649000000
C     1.526000000    -5.684000000    -1.540000000
H     2.243000000    -6.454000000    -1.267000000
C     1.635000000    -5.202000000    -2.836000000
O     2.550000000    -5.711000000    -3.678000000
C     3.419000000    -4.989000000    -4.450000000
C     4.063000000    -5.606000000    -5.520000000
H     3.711000000    -6.551000000    -5.927000000
C     5.165000000    -5.031000000    -6.077000000
H     5.704000000    -5.560000000    -6.858000000
C     5.538000000    -3.739000000    -5.642000000
H     6.321000000    -3.306000000    -6.258000000
C     4.850000000    -2.966000000    -4.725000000
C     3.826000000    -3.696000000    -4.011000000
H     3.351000000    -3.290000000    -3.122000000
C     2.179000000    -1.373000000    -0.397000000
H     2.801000000    -1.979000000    -1.051000000
C     1.213000000    -0.563000000    -0.986000000
H     1.171000000    -0.429000000    -2.064000000
C     0.318000000     0.075000000    -0.151000000
C    -0.814000000     0.900000000    -0.661000000
H    -1.415000000     1.263000000     0.175000000
H    -0.530000000     1.703000000    -1.344000000
H    -1.377000000     0.192000000    -1.273000000
C     0.431000000    -0.065000000     1.223000000
H    -0.263000000     0.434000000     1.895000000
C     1.472000000    -0.836000000     1.772000000
H     1.563000000    -0.943000000     2.850000000
C     2.289000000    -1.626000000     0.999000000
C     3.294000000    -2.680000000     1.486000000
O     3.590000000    -2.759000000     2.630000000
O     3.777000000    -3.502000000     0.763000000
O     4.810000000    -7.268000000    -2.484000000
H     5.562000000    -7.366000000    -3.068000000
H     4.852000000    -6.357000000    -2.191000000
O     6.492000000    -4.770000000     2.955000000
H     6.639000000    -3.839000000     3.123000000
H     6.579000000    -5.185000000     3.813000000
O     8.350000000    -1.452000000    -0.524000000
H     8.112000000    -1.821000000     0.327000000
H     8.595000000    -2.211000000    -1.054000000
O     5.903000000     0.530000000     6.554000000
H     5.652000000     0.005000000     5.794000000
H     6.114000000     1.390000000     6.191000000
O     7.762000000    -5.167000000    -0.591000000
H     7.628000000    -5.922000000    -0.017000000
H     8.295000000    -4.564000000    -0.072000000
O     2.157000000    -1.573000000     5.613000000
H     1.760000000    -2.439000000     5.524000000
H     1.955000000    -1.308000000     6.510000000
O     4.952000000    -5.067000000    -0.980000000
H     4.468000000    -4.591000000    -0.306000000
H     5.870000000    -4.852000000    -0.813000000
O     5.866000000    -5.833000000     5.794000000
H     5.344000000    -6.512000000     5.368000000
H     5.225000000    -5.293000000     6.257000000
O     7.706000000    -6.899000000     1.551000000
H     8.189000000    -6.827000000     2.374000000
H     6.891000000    -6.422000000     1.709000000
O     3.699000000    -7.821000000     0.201000000
H     4.285000000    -7.404000000    -0.431000000
H     3.417000000    -7.107000000     0.772000000
O     3.695000000    -5.740000000     2.224000000
H     3.436000000    -4.956000000     1.741000000
H     4.588000000    -5.559000000     2.516000000
O     3.792000000    -4.386000000     6.967000000
H     3.950000000    -3.518000000     7.337000000
H     3.322000000    -4.217000000     6.151000000
O     1.540000000    -7.256000000     3.443000000
H     0.935000000    -7.651000000     2.816000000
H     2.171000000    -6.783000000     2.900000000
O     2.077000000    -4.059000000     4.547000000
H     2.078000000    -4.812000000     3.956000000
H     2.605000000    -3.400000000     4.096000000
O     4.867000000    -1.103000000     4.624000000
H     4.011000000    -1.124000000     5.051000000
H     4.834000000    -1.816000000     3.986000000
O     0.518000000    -5.519000000     6.180000000
H     1.093000000    -4.974000000     5.642000000
H     0.198000000    -4.930000000     6.862000000
O     8.946000000    -0.573000000     3.344000000
H     9.467000000    -1.088000000     2.728000000
H     8.044000000    -0.850000000     3.186000000
O     6.438000000    -2.034000000     1.857000000
H     6.068000000    -1.353000000     1.295000000
H     5.709000000    -2.633000000     2.019000000
O     4.220000000    -8.101000000     5.042000000
H     4.166000000    -9.008000000     5.343000000
H     3.428000000    -7.975000000     4.518000000
