218
-1465.18118
C     0.325000000     3.156000000     4.437000000
H    -0.718000000     3.241000000     4.729000000
C     0.687000000     3.531000000     3.178000000
C     2.034000000     3.631000000     2.825000000
H     2.312000000     3.959000000     1.827000000
C    -0.408000000     3.757000000     2.167000000
O    -1.682000000     4.164000000     2.654000000
H    -0.508000000     2.847000000     1.557000000
O     0.096000000     4.726000000     1.240000000
C    -0.116000000     4.534000000    -0.123000000
C     0.994000000     4.235000000    -0.897000000
H     1.950000000     4.237000000    -0.380000000
C     0.845000000     3.793000000    -2.213000000
O     1.911000000     3.299000000    -2.859000000
C    -0.396000000     3.848000000    -2.874000000
C    -0.522000000     3.480000000    -4.368000000
H    -1.396000000     4.004000000    -4.761000000
C    -0.680000000     1.963000000    -4.490000000
C    -1.944000000     1.369000000    -4.322000000
H    -2.818000000     1.984000000    -4.123000000
H     0.367000000     3.877000000    -4.862000000
C    -1.497000000     4.307000000    -2.110000000
H    -2.488000000     4.280000000    -2.555000000
C    -1.347000000     4.612000000    -0.778000000
C    -2.630000000     4.984000000    -0.054000000
H    -3.320000000     5.347000000    -0.819000000
H    -2.443000000     5.688000000     0.760000000
C    -3.109000000     3.721000000     0.724000000
C    -3.979000000     2.801000000     0.175000000
H    -4.464000000     3.074000000    -0.759000000
C    -2.688000000     3.500000000     2.043000000
C    -3.035000000     2.343000000     2.727000000
H    -2.534000000     2.092000000     3.659000000
C    -3.915000000     1.465000000     2.186000000
O    -4.144000000     0.260000000     2.814000000
C    -3.451000000    -0.963000000     2.266000000
C    -2.941000000    -1.819000000     3.415000000
C    -2.593000000    -3.109000000     3.188000000
H    -2.851000000    -3.553000000     2.230000000
C    -2.644000000    -1.302000000     4.705000000
H    -2.878000000    -0.254000000     4.877000000
O    -4.203000000    -1.704000000     1.296000000
H    -2.531000000    -0.602000000     1.782000000
C    -4.376000000     1.695000000     0.886000000
C    -5.369000000     0.697000000     0.248000000
H    -6.109000000     1.180000000    -0.394000000
H    -6.105000000     0.191000000     0.878000000
C    -4.526000000    -0.248000000    -0.565000000
C    -4.310000000     0.027000000    -1.911000000
H    -4.820000000     0.889000000    -2.335000000
C    -4.010000000    -1.424000000    -0.025000000
C    -3.478000000    -2.438000000    -0.831000000
H    -3.395000000    -3.455000000    -0.456000000
C    -3.186000000    -2.130000000    -2.159000000
O    -2.489000000    -3.080000000    -2.939000000
C    -1.060000000    -2.842000000    -3.226000000
C    -0.188000000    -4.046000000    -2.970000000
C    -0.340000000    -4.724000000    -1.779000000
H    -1.048000000    -4.303000000    -1.070000000
C     0.892000000    -4.257000000    -3.830000000
H     0.997000000    -3.838000000    -4.828000000
O    -0.980000000    -2.231000000    -4.518000000
H    -0.731000000    -2.170000000    -2.420000000
C    -3.619000000    -0.884000000    -2.700000000
C    -3.456000000    -0.565000000    -4.247000000
H    -4.192000000     0.187000000    -4.536000000
H    -3.545000000    -1.380000000    -4.969000000
C    -2.087000000    -0.012000000    -4.510000000
C    -0.981000000    -0.868000000    -4.681000000
C     0.267000000    -0.246000000    -4.745000000
H     1.191000000    -0.803000000    -4.616000000
C     0.416000000     1.129000000    -4.623000000
O     1.723000000     1.553000000    -4.354000000
C     2.059000000     1.855000000    -2.957000000
H     1.328000000     1.396000000    -2.276000000
C     3.453000000     1.306000000    -2.744000000
C     4.304000000     1.909000000    -1.793000000
H     3.934000000     2.854000000    -1.405000000
C     3.863000000     0.099000000    -3.337000000
H     3.168000000    -0.380000000    -4.022000000
C     5.096000000    -0.487000000    -2.983000000
O     5.439000000    -1.767000000    -3.465000000
C     5.964000000     0.187000000    -2.110000000
H     6.888000000    -0.288000000    -1.790000000
C     5.592000000     1.426000000    -1.538000000
O     6.487000000     2.126000000    -0.686000000
C     6.058000000     3.203000000     0.110000000
C     5.416000000     2.833000000     1.265000000
H     5.421000000     1.767000000     1.475000000
C     6.180000000     4.537000000    -0.249000000
H     6.632000000     4.806000000    -1.200000000
C     5.648000000     5.477000000     0.708000000
H     5.452000000     6.490000000     0.366000000
C     4.991000000     5.082000000     1.864000000
H     4.468000000     5.772000000     2.521000000
C     4.902000000     3.740000000     2.184000000
O     4.390000000     3.319000000     3.391000000
C     3.026000000     3.267000000     3.725000000
C     2.630000000     2.958000000     5.033000000
H     3.425000000     2.735000000     5.739000000
C     1.294000000     2.856000000     5.418000000
O     0.985000000     2.541000000     6.718000000
C    -0.136000000     1.932000000     7.024000000
C    -0.240000000     0.549000000     6.774000000
H     0.567000000    -0.068000000     6.385000000
C    -1.212000000     2.529000000     7.585000000
H    -1.218000000     3.597000000     7.785000000
C    -2.377000000     1.816000000     7.935000000
H    -3.169000000     2.351000000     8.451000000
C    -2.457000000     0.483000000     7.662000000
H    -3.353000000    -0.072000000     7.926000000
C    -1.398000000    -0.140000000     7.048000000
O    -1.454000000    -1.485000000     6.794000000
C    -1.978000000    -2.103000000     5.695000000
C    -1.650000000    -3.401000000     5.436000000
H    -1.188000000    -3.994000000     6.222000000
C    -1.901000000    -3.926000000     4.143000000
O    -1.508000000    -5.198000000     3.842000000
C    -1.688000000    -5.757000000     2.576000000
C    -0.608000000    -5.983000000     1.817000000
H     0.374000000    -5.680000000     2.172000000
C    -2.882000000    -6.275000000     2.129000000
H    -3.723000000    -6.310000000     2.817000000
C    -3.038000000    -6.743000000     0.852000000
H    -3.984000000    -7.128000000     0.481000000
C    -1.948000000    -6.801000000    -0.017000000
H    -2.191000000    -7.057000000    -1.045000000
C    -0.702000000    -6.538000000     0.509000000
O     0.424000000    -6.438000000    -0.286000000
C     0.567000000    -5.747000000    -1.482000000
C     1.595000000    -6.115000000    -2.338000000
H     2.303000000    -6.893000000    -2.064000000
C     1.667000000    -5.455000000    -3.570000000
O     2.746000000    -5.685000000    -4.374000000
C     3.533000000    -4.614000000    -4.775000000
C     3.634000000    -4.396000000    -6.091000000
H     3.213000000    -5.191000000    -6.702000000
C     4.136000000    -3.152000000    -6.628000000
H     4.122000000    -2.967000000    -7.699000000
C     4.865000000    -2.326000000    -5.755000000
H     5.284000000    -1.393000000    -6.122000000
C     4.723000000    -2.559000000    -4.351000000
C     4.085000000    -3.718000000    -3.839000000
H     4.009000000    -3.925000000    -2.775000000
C     0.913000000    -2.230000000     0.998000000
H     1.226000000    -3.167000000     0.544000000
C     0.339000000    -1.250000000     0.162000000
H     0.292000000    -1.386000000    -0.915000000
C    -0.252000000    -0.127000000     0.683000000
C    -0.849000000     0.917000000    -0.142000000
H    -1.800000000     1.301000000     0.233000000
H    -0.292000000     1.847000000    -0.270000000
H    -1.078000000     0.473000000    -1.113000000
C    -0.190000000     0.080000000     2.059000000
H    -0.607000000     0.961000000     2.540000000
C     0.642000000    -0.732000000     2.890000000
H     0.772000000    -0.476000000     3.939000000
C     1.031000000    -2.009000000     2.361000000
C     1.685000000    -3.064000000     3.237000000
O     1.695000000    -3.025000000     4.443000000
O     2.493000000    -3.840000000     2.766000000
O     6.088000000    -0.661000000     5.412000000
H     6.105000000    -1.360000000     6.066000000
H     5.234000000    -0.750000000     4.988000000
O     1.299000000    -2.982000000     7.041000000
H     1.476000000    -3.173000000     6.120000000
H     0.532000000    -2.409000000     7.023000000
O     5.558000000    -2.406000000    -0.718000000
H     6.433000000    -2.378000000    -0.330000000
H     5.715000000    -2.467000000    -1.660000000
O     0.697000000    -5.408000000     7.931000000
H     0.884000000    -4.476000000     7.820000000
H     0.941000000    -5.803000000     7.095000000
O     4.831000000    -0.330000000     2.767000000
H     5.739000000    -0.479000000     2.504000000
H     4.323000000    -0.482000000     1.970000000
O     2.797000000    -6.212000000     1.300000000
H     2.132000000    -6.100000000     0.620000000
H     2.734000000    -5.416000000     1.829000000
O     3.474000000     0.596000000     7.776000000
H     3.376000000     0.103000000     6.961000000
H     4.397000000     0.850000000     7.792000000
O     3.966000000    -7.623000000     5.670000000
H     3.648000000    -8.047000000     4.873000000
H     4.348000000    -6.799000000     5.368000000
O     4.313000000    -4.903000000     5.209000000
H     4.666000000    -4.514000000     6.009000000
H     3.891000000    -4.175000000     4.754000000
O     1.762000000    -5.593000000     5.265000000
H     1.618000000    -4.920000000     4.598000000
H     2.680000000    -5.489000000     5.515000000
O     5.805000000    -6.816000000     2.943000000
H     5.236000000    -7.366000000     3.480000000
H     5.668000000    -5.930000000     3.277000000
O     4.920000000    -6.886000000    -0.288000000
H     4.251000000    -6.347000000     0.134000000
H     4.823000000    -7.748000000     0.116000000
O     5.321000000    -3.272000000     2.763000000
H     5.447000000    -2.417000000     3.174000000
H     4.484000000    -3.195000000     2.303000000
O     0.045000000    -7.752000000     5.048000000
H     0.702000000    -7.126000000     5.353000000
H    -0.604000000    -7.216000000     4.593000000
O     3.169000000    -8.498000000     3.001000000
H     2.385000000    -8.938000000     2.675000000
H     3.214000000    -7.685000000     2.498000000
O     7.916000000    -3.795000000     2.801000000
H     6.977000000    -3.729000000     2.625000000
H     8.016000000    -3.459000000     3.692000000
O     3.459000000    -0.880000000     0.485000000
H     4.035000000    -1.290000000    -0.160000000
H     2.588000000    -1.218000000     0.277000000
O     3.111000000    -0.767000000     5.344000000
H     2.636000000    -1.597000000     5.310000000
H     3.385000000    -0.611000000     4.440000000
O     5.690000000    -2.996000000     6.949000000
H     6.586000000    -3.234000000     7.188000000
H     5.256000000    -2.826000000     7.785000000
