218
-1463.88948
C     0.689000000     2.418000000     4.430000000
H    -0.359000000     2.132000000     4.461000000
C     1.022000000     3.181000000     3.394000000
C     2.426000000     3.490000000     3.171000000
H     2.750000000     4.207000000     2.421000000
C     0.014000000     3.510000000     2.379000000
O    -1.299000000     3.842000000     3.003000000
H    -0.074000000     2.726000000     1.613000000
O     0.433000000     4.642000000     1.584000000
C     0.358000000     4.575000000     0.229000000
C     1.478000000     4.130000000    -0.561000000
H     2.407000000     4.022000000    -0.008000000
C     1.273000000     3.860000000    -1.914000000
O     2.350000000     3.337000000    -2.705000000
C     0.063000000     4.166000000    -2.484000000
C    -0.155000000     3.854000000    -4.000000000
H    -0.849000000     4.600000000    -4.394000000
C    -0.407000000     2.360000000    -4.329000000
C    -1.731000000     1.883000000    -4.448000000
H    -2.549000000     2.595000000    -4.375000000
H     0.782000000     4.233000000    -4.413000000
C    -1.010000000     4.622000000    -1.741000000
H    -1.981000000     4.758000000    -2.212000000
C    -0.874000000     4.849000000    -0.358000000
C    -2.045000000     5.182000000     0.556000000
H    -2.765000000     5.619000000    -0.140000000
H    -1.749000000     5.921000000     1.304000000
C    -2.838000000     4.001000000     1.129000000
C    -3.794000000     3.312000000     0.366000000
H    -4.086000000     3.573000000    -0.647000000
C    -2.463000000     3.458000000     2.371000000
C    -3.030000000     2.297000000     2.848000000
H    -2.739000000     1.762000000     3.749000000
C    -3.920000000     1.654000000     2.104000000
O    -4.377000000     0.433000000     2.607000000
C    -3.757000000    -0.719000000     1.939000000
C    -3.336000000    -1.768000000     3.019000000
C    -2.900000000    -3.085000000     2.681000000
H    -2.865000000    -3.407000000     1.643000000
C    -3.283000000    -1.462000000     4.371000000
H    -3.596000000    -0.472000000     4.695000000
O    -4.635000000    -1.364000000     0.934000000
H    -2.817000000    -0.482000000     1.419000000
C    -4.338000000     2.142000000     0.868000000
C    -5.346000000     1.344000000    -0.001000000
H    -5.878000000     2.012000000    -0.682000000
H    -6.162000000     0.831000000     0.512000000
C    -4.708000000     0.245000000    -0.854000000
C    -4.367000000     0.586000000    -2.197000000
H    -4.622000000     1.524000000    -2.683000000
C    -4.467000000    -1.026000000    -0.380000000
C    -3.735000000    -1.925000000    -1.136000000
H    -3.513000000    -2.885000000    -0.675000000
C    -3.448000000    -1.563000000    -2.446000000
O    -2.814000000    -2.533000000    -3.202000000
C    -1.417000000    -2.393000000    -3.265000000
C    -0.598000000    -3.684000000    -2.967000000
C    -1.028000000    -4.706000000    -2.101000000
H    -1.975000000    -4.645000000    -1.571000000
C     0.694000000    -3.815000000    -3.533000000
H     1.107000000    -2.964000000    -4.069000000
O    -0.964000000    -1.712000000    -4.481000000
H    -1.154000000    -1.706000000    -2.448000000
C    -3.844000000    -0.384000000    -3.049000000
C    -3.409000000    -0.058000000    -4.470000000
H    -4.061000000     0.691000000    -4.926000000
H    -3.501000000    -0.914000000    -5.141000000
C    -1.977000000     0.481000000    -4.547000000
C    -0.865000000    -0.380000000    -4.489000000
C     0.431000000     0.095000000    -4.394000000
H     1.283000000    -0.562000000    -4.543000000
C     0.631000000     1.420000000    -4.351000000
O     1.953000000     1.723000000    -4.289000000
C     2.434000000     1.872000000    -2.909000000
H     1.750000000     1.383000000    -2.199000000
C     3.801000000     1.254000000    -2.654000000
C     4.635000000     1.846000000    -1.660000000
H     4.213000000     2.704000000    -1.143000000
C     4.180000000     0.060000000    -3.258000000
H     3.513000000    -0.495000000    -3.913000000
C     5.468000000    -0.505000000    -2.999000000
O     5.860000000    -1.636000000    -3.606000000
C     6.298000000     0.114000000    -2.006000000
H     7.292000000    -0.255000000    -1.769000000
C     5.782000000     1.201000000    -1.227000000
O     6.522000000     1.626000000    -0.121000000
C     6.197000000     2.660000000     0.674000000
C     5.610000000     2.391000000     1.923000000
H     5.546000000     1.359000000     2.258000000
C     6.398000000     3.992000000     0.172000000
H     6.735000000     4.191000000    -0.841000000
C     6.021000000     5.029000000     1.060000000
H     6.216000000     6.047000000     0.732000000
C     5.425000000     4.762000000     2.255000000
H     5.008000000     5.582000000     2.833000000
C     5.224000000     3.466000000     2.677000000
O     4.678000000     3.214000000     3.913000000
C     3.340000000     2.968000000     4.094000000
C     2.955000000     2.161000000     5.152000000
H     3.719000000     1.804000000     5.838000000
C     1.625000000     1.851000000     5.295000000
O     1.174000000     0.926000000     6.240000000
C    -0.125000000     0.659000000     6.656000000
C    -0.661000000    -0.594000000     6.458000000
H    -0.050000000    -1.345000000     5.963000000
C    -0.871000000     1.702000000     7.161000000
H    -0.439000000     2.699000000     7.202000000
C    -2.220000000     1.509000000     7.553000000
H    -2.855000000     2.320000000     7.902000000
C    -2.767000000     0.281000000     7.401000000
H    -3.800000000     0.039000000     7.638000000
C    -2.020000000    -0.749000000     6.830000000
O    -2.624000000    -2.031000000     6.587000000
C    -2.842000000    -2.398000000     5.311000000
C    -2.364000000    -3.667000000     4.927000000
H    -1.858000000    -4.328000000     5.626000000
C    -2.357000000    -3.987000000     3.573000000
O    -1.690000000    -5.213000000     3.268000000
C    -2.092000000    -5.932000000     2.118000000
C    -1.176000000    -6.094000000     1.180000000
H    -0.268000000    -5.516000000     1.329000000
C    -3.284000000    -6.705000000     2.105000000
H    -3.958000000    -6.732000000     2.958000000
C    -3.671000000    -7.517000000     1.008000000
H    -4.631000000    -8.012000000     0.879000000
C    -2.767000000    -7.408000000    -0.082000000
H    -3.131000000    -7.831000000    -1.015000000
C    -1.516000000    -6.831000000     0.070000000
O    -0.628000000    -6.927000000    -1.020000000
C    -0.170000000    -5.826000000    -1.777000000
C     1.074000000    -5.963000000    -2.503000000
H     1.740000000    -6.808000000    -2.348000000
C     1.508000000    -4.920000000    -3.320000000
O     2.667000000    -5.123000000    -4.058000000
C     3.370000000    -3.994000000    -4.617000000
C     3.233000000    -3.752000000    -5.989000000
H     2.418000000    -4.289000000    -6.469000000
C     3.943000000    -2.720000000    -6.619000000
H     3.783000000    -2.611000000    -7.688000000
C     4.844000000    -2.032000000    -5.807000000
H     5.354000000    -1.184000000    -6.257000000
C     5.082000000    -2.414000000    -4.426000000
C     4.292000000    -3.403000000    -3.881000000
H     4.247000000    -3.651000000    -2.823000000
C     0.888000000    -2.767000000     0.921000000
H     1.333000000    -3.603000000     0.388000000
C     0.391000000    -1.729000000     0.144000000
H     0.331000000    -1.832000000    -0.937000000
C    -0.196000000    -0.631000000     0.670000000
C    -0.760000000     0.437000000    -0.225000000
H    -1.540000000     0.005000000    -0.855000000
H    -1.196000000     1.256000000     0.351000000
H     0.094000000     0.853000000    -0.764000000
C    -0.300000000    -0.587000000     2.079000000
H    -0.788000000     0.254000000     2.565000000
C     0.329000000    -1.543000000     2.872000000
H     0.369000000    -1.450000000     3.954000000
C     0.894000000    -2.672000000     2.294000000
C     1.630000000    -3.754000000     3.097000000
O     1.780000000    -3.478000000     4.264000000
O     1.879000000    -4.827000000     2.631000000
O     4.992000000    -2.461000000     7.739000000
H     4.999000000    -3.418000000     7.750000000
H     4.376000000    -2.234000000     7.043000000
O     1.996000000    -3.960000000     8.757000000
H     1.897000000    -4.342000000     7.885000000
H     1.183000000    -3.476000000     8.901000000
O     1.402000000    -5.101000000     6.249000000
H     1.474000000    -4.423000000     5.577000000
H     1.334000000    -5.919000000     5.756000000
O     4.034000000    -1.887000000     0.352000000
H     4.956000000    -1.772000000     0.121000000
H     3.920000000    -2.835000000     0.419000000
O     6.557000000    -6.925000000    -0.125000000
H     6.176000000    -6.273000000     0.464000000
H     7.486000000    -6.942000000     0.105000000
O     5.152000000    -2.964000000     3.381000000
H     4.386000000    -2.396000000     3.465000000
H     5.460000000    -2.819000000     2.486000000
O     6.183000000    -7.014000000     3.228000000
H     5.971000000    -7.916000000     2.988000000
H     5.379000000    -6.675000000     3.622000000
O     2.768000000    -7.061000000     1.551000000
H     2.181000000    -7.693000000     1.967000000
H     2.478000000    -6.211000000     1.882000000
O     2.591000000    -0.865000000     8.444000000
H     2.512000000    -0.875000000     7.490000000
H     3.522000000    -0.710000000     8.606000000
O     4.604000000    -7.167000000     6.306000000
H     4.710000000    -6.704000000     7.138000000
H     4.324000000    -6.490000000     5.690000000
O     0.930000000    -7.005000000     4.095000000
H     1.224000000    -6.148000000     3.785000000
H     0.051000000    -7.103000000     3.730000000
O     4.009000000    -7.584000000    -1.078000000
H     3.539000000    -7.653000000    -0.247000000
H     4.910000000    -7.380000000    -0.828000000
O     4.013000000    -5.432000000     4.211000000
H     4.538000000    -4.644000000     4.067000000
H     3.113000000    -5.154000000     4.043000000
O    -0.599000000    -9.256000000     5.759000000
H     0.108000000    -8.698000000     5.436000000
H    -0.216000000   -10.132000000     5.795000000
O     3.843000000    -4.498000000     0.861000000
H     3.151000000    -4.667000000     1.500000000
H     3.974000000    -5.338000000     0.422000000
O     3.380000000    -9.587000000     4.748000000
H     4.143000000    -9.082000000     4.468000000
H     2.685000000    -8.937000000     4.848000000
O     7.668000000    -4.492000000     1.648000000
H     8.517000000    -4.763000000     1.996000000
H     7.030000000    -4.845000000     2.268000000
O     3.208000000    -0.847000000     2.829000000
H     3.247000000    -1.146000000     1.921000000
H     2.387000000    -0.359000000     2.886000000
O     3.271000000    -1.667000000     5.751000000
H     2.807000000    -2.321000000     5.228000000
H     3.584000000    -1.027000000     5.111000000
