218
-1449.58428
C     3.165000000     3.231000000     3.183000000
H     2.202000000     3.177000000     3.685000000
C     3.070000000     3.585000000     1.840000000
C     4.217000000     3.414000000     1.048000000
H     4.164000000     3.600000000    -0.021000000
C     1.742000000     3.906000000     1.197000000
O     0.774000000     4.539000000     2.065000000
H     1.381000000     2.967000000     0.752000000
O     1.879000000     4.674000000    -0.019000000
C     1.107000000     4.504000000    -1.180000000
C     1.741000000     3.779000000    -2.197000000
H     2.770000000     3.431000000    -2.153000000
C     0.907000000     3.319000000    -3.267000000
O     1.593000000     2.441000000    -4.133000000
C    -0.439000000     3.587000000    -3.355000000
C    -1.246000000     3.071000000    -4.516000000
H    -2.041000000     3.780000000    -4.757000000
C    -1.707000000     1.657000000    -4.167000000
C    -3.021000000     1.527000000    -3.751000000
H    -3.637000000     2.393000000    -3.521000000
H    -0.652000000     3.014000000    -5.430000000
C    -1.023000000     4.334000000    -2.299000000
H    -2.102000000     4.454000000    -2.340000000
C    -0.236000000     4.750000000    -1.202000000
C    -0.822000000     5.584000000    -0.109000000
H    -1.657000000     6.226000000    -0.399000000
H    -0.028000000     6.211000000     0.303000000
C    -1.318000000     4.629000000     0.969000000
C    -2.642000000     4.192000000     0.860000000
H    -3.218000000     4.595000000     0.031000000
C    -0.546000000     4.118000000     2.015000000
C    -1.066000000     3.243000000     2.978000000
H    -0.449000000     3.000000000     3.840000000
C    -2.382000000     2.848000000     2.837000000
O    -2.777000000     1.843000000     3.665000000
C    -2.963000000     0.615000000     3.157000000
C    -2.260000000    -0.526000000     3.878000000
C    -2.831000000    -1.785000000     4.221000000
H    -3.892000000    -1.943000000     4.044000000
C    -0.935000000    -0.371000000     4.216000000
H    -0.425000000     0.586000000     4.141000000
O    -4.315000000     0.296000000     2.824000000
H    -2.372000000     0.675000000     2.231000000
C    -3.147000000     3.320000000     1.801000000
C    -4.553000000     2.793000000     1.599000000
H    -5.149000000     3.641000000     1.256000000
H    -5.022000000     2.735000000     2.584000000
C    -4.722000000     1.526000000     0.826000000
C    -4.827000000     1.525000000    -0.583000000
H    -4.817000000     2.400000000    -1.229000000
C    -4.607000000     0.284000000     1.478000000
C    -4.500000000    -0.905000000     0.851000000
H    -4.349000000    -1.853000000     1.361000000
C    -4.595000000    -0.846000000    -0.496000000
O    -4.422000000    -2.048000000    -1.168000000
C    -3.186000000    -2.317000000    -1.828000000
C    -2.591000000    -3.641000000    -1.395000000
C    -3.075000000    -4.357000000    -0.282000000
H    -3.998000000    -4.080000000     0.222000000
C    -1.318000000    -3.948000000    -1.910000000
H    -0.922000000    -3.347000000    -2.725000000
O    -3.210000000    -2.115000000    -3.270000000
H    -2.473000000    -1.596000000    -1.402000000
C    -4.790000000     0.292000000    -1.241000000
C    -4.870000000     0.197000000    -2.786000000
H    -5.555000000     0.946000000    -3.187000000
H    -5.406000000    -0.701000000    -3.102000000
C    -3.516000000     0.274000000    -3.411000000
C    -2.804000000    -0.872000000    -3.762000000
C    -1.584000000    -0.752000000    -4.475000000
H    -1.009000000    -1.644000000    -4.712000000
C    -1.020000000     0.497000000    -4.564000000
O     0.261000000     0.677000000    -5.051000000
C     1.249000000     1.036000000    -4.086000000
H     0.814000000     0.888000000    -3.086000000
C     2.482000000     0.111000000    -4.046000000
C     3.715000000     0.571000000    -3.501000000
H     3.758000000     1.621000000    -3.221000000
C     2.365000000    -1.150000000    -4.569000000
H     1.431000000    -1.535000000    -4.969000000
C     3.484000000    -1.988000000    -4.538000000
O     3.489000000    -3.303000000    -5.136000000
C     4.697000000    -1.516000000    -4.070000000
H     5.531000000    -2.213000000    -4.047000000
C     4.815000000    -0.221000000    -3.582000000
O     6.062000000     0.137000000    -3.179000000
C     6.366000000     1.270000000    -2.518000000
C     6.335000000     1.331000000    -1.196000000
H     6.141000000     0.434000000    -0.615000000
C     6.615000000     2.393000000    -3.327000000
H     6.525000000     2.359000000    -4.410000000
C     6.695000000     3.617000000    -2.659000000
H     6.818000000     4.523000000    -3.247000000
C     6.712000000     3.665000000    -1.250000000
H     6.897000000     4.571000000    -0.678000000
C     6.509000000     2.502000000    -0.513000000
O     6.479000000     2.575000000     0.847000000
C     5.430000000     3.036000000     1.594000000
C     5.515000000     2.901000000     2.978000000
H     6.401000000     2.486000000     3.451000000
C     4.394000000     2.925000000     3.813000000
O     4.381000000     2.461000000     5.137000000
C     3.353000000     1.806000000     5.753000000
C     2.727000000     0.803000000     5.125000000
H     3.246000000     0.304000000     4.310000000
C     2.792000000     2.373000000     6.845000000
H     3.255000000     3.263000000     7.265000000
C     1.613000000     1.816000000     7.406000000
H     1.176000000     2.231000000     8.311000000
C     1.071000000     0.603000000     6.838000000
H     0.022000000     0.409000000     7.046000000
C     1.621000000     0.102000000     5.660000000
O     1.181000000    -1.026000000     5.059000000
C    -0.116000000    -1.330000000     4.770000000
C    -0.724000000    -2.543000000     5.073000000
H    -0.254000000    -3.297000000     5.698000000
C    -2.071000000    -2.727000000     4.820000000
O    -2.708000000    -3.835000000     5.329000000
C    -3.141000000    -4.809000000     4.457000000
C    -2.826000000    -4.927000000     3.122000000
H    -2.089000000    -4.242000000     2.712000000
C    -3.933000000    -5.774000000     5.081000000
H    -4.302000000    -5.613000000     6.091000000
C    -4.355000000    -6.864000000     4.343000000
H    -4.860000000    -7.658000000     4.887000000
C    -4.105000000    -6.922000000     2.960000000
H    -4.411000000    -7.824000000     2.436000000
C    -3.264000000    -6.074000000     2.372000000
O    -2.861000000    -6.332000000     1.082000000
C    -2.324000000    -5.468000000     0.125000000
C    -1.081000000    -5.783000000    -0.372000000
H    -0.519000000    -6.620000000     0.035000000
C    -0.587000000    -5.060000000    -1.449000000
O     0.694000000    -5.355000000    -1.858000000
C     1.056000000    -5.225000000    -3.194000000
C     0.443000000    -5.961000000    -4.208000000
H    -0.350000000    -6.629000000    -3.883000000
C     0.831000000    -5.851000000    -5.588000000
H     0.317000000    -6.379000000    -6.387000000
C     1.933000000    -5.051000000    -5.847000000
H     2.278000000    -4.992000000    -6.876000000
C     2.514000000    -4.251000000    -4.843000000
C     2.079000000    -4.370000000    -3.551000000
H     2.610000000    -3.723000000    -2.858000000
C     2.196000000    -1.570000000    -0.789000000
H     3.187000000    -1.563000000    -1.236000000
C     1.488000000    -0.389000000    -0.827000000
H     1.891000000     0.494000000    -1.316000000
C     0.261000000    -0.337000000    -0.176000000
C    -0.582000000     0.877000000    -0.072000000
H    -0.514000000     1.522000000    -0.950000000
H    -1.649000000     0.660000000     0.016000000
H    -0.218000000     1.361000000     0.837000000
C    -0.184000000    -1.450000000     0.585000000
H    -1.091000000    -1.412000000     1.184000000
C     0.601000000    -2.607000000     0.690000000
H     0.363000000    -3.486000000     1.284000000
C     1.795000000    -2.676000000    -0.032000000
C     2.720000000    -3.885000000     0.210000000
O     2.471000000    -4.562000000     1.156000000
O     3.732000000    -4.047000000    -0.377000000
O     3.778000000    -2.470000000     6.285000000
H     4.272000000    -1.666000000     6.128000000
H     3.186000000    -2.537000000     5.536000000
O     2.351000000    -7.963000000    -2.471000000
H     2.092000000    -7.058000000    -2.646000000
H     3.258000000    -7.899000000    -2.171000000
O     7.406000000    -3.352000000     2.164000000
H     6.903000000    -2.755000000     1.611000000
H     6.864000000    -4.139000000     2.223000000
O     6.388000000    -5.799000000    -4.894000000
H     5.860000000    -5.531000000    -4.141000000
H     6.655000000    -4.976000000    -5.304000000
O     5.410000000    -5.099000000     1.533000000
H     4.739000000    -4.870000000     0.890000000
H     5.911000000    -5.800000000     1.116000000
O     3.255000000    -3.180000000     3.550000000
H     3.996000000    -3.660000000     3.918000000
H     3.214000000    -3.465000000     2.637000000
O     0.607000000    -8.928000000    -0.565000000
H     1.210000000    -8.740000000    -1.284000000
H     1.115000000    -8.751000000     0.227000000
O     1.032000000    -5.723000000     2.963000000
H     1.434000000    -5.457000000     2.136000000
H     1.457000000    -5.176000000     3.623000000
O     4.893000000    -7.856000000    -1.707000000
H     5.046000000    -8.661000000    -1.212000000
H     5.739000000    -7.654000000    -2.105000000
O     5.101000000    -0.148000000     2.189000000
H     5.140000000     0.629000000     1.631000000
H     4.178000000    -0.221000000     2.432000000
O     5.577000000    -1.959000000     0.087000000
H     4.932000000    -2.530000000    -0.330000000
H     5.120000000    -1.595000000     0.846000000
O     7.781000000    -5.360000000    -1.637000000
H     8.514000000    -5.306000000    -1.023000000
H     7.933000000    -6.173000000    -2.119000000
O     3.297000000    -8.569000000     2.817000000
H     3.351000000    -8.181000000     1.943000000
H     3.613000000    -7.883000000     3.404000000
O    -0.244000000    -6.587000000     5.252000000
H     0.528000000    -6.974000000     5.664000000
H     0.069000000    -6.269000000     4.406000000
O     2.351000000    -0.614000000     2.293000000
H     1.905000000    -1.024000000     3.034000000
H     1.959000000    -1.024000000     1.522000000
O     3.260000000    -7.029000000     0.607000000
H     3.201000000    -6.099000000     0.826000000
H     3.881000000    -7.065000000    -0.121000000
O     0.376000000    -8.556000000     2.800000000
H     0.072000000    -7.649000000     2.756000000
H     1.297000000    -8.488000000     3.051000000
O     5.228000000    -4.979000000    -2.587000000
H     6.069000000    -5.137000000    -2.157000000
H     4.649000000    -4.690000000    -1.882000000
O     8.117000000    -2.029000000    -1.251000000
H     8.214000000    -2.899000000    -1.639000000
H     7.188000000    -1.967000000    -1.030000000
