218
-1445.83675
C     3.032000000     3.675000000     2.841000000
H     2.256000000     3.988000000     3.535000000
C     2.945000000     3.633000000     1.446000000
C     4.014000000     3.290000000     0.710000000
H     3.881000000     3.263000000    -0.368000000
C     1.577000000     3.995000000     0.823000000
O     0.788000000     4.747000000     1.751000000
H     1.111000000     3.009000000     0.681000000
O     1.770000000     4.623000000    -0.442000000
C     0.912000000     4.367000000    -1.518000000
C     1.376000000     3.418000000    -2.429000000
H     2.425000000     3.137000000    -2.422000000
C     0.526000000     3.057000000    -3.516000000
O     1.162000000     2.161000000    -4.383000000
C    -0.817000000     3.393000000    -3.524000000
C    -1.823000000     2.802000000    -4.597000000
H    -2.707000000     3.444000000    -4.584000000
C    -2.300000000     1.417000000    -4.204000000
C    -3.523000000     1.228000000    -3.570000000
H    -4.029000000     2.167000000    -3.363000000
H    -1.511000000     2.890000000    -5.640000000
C    -1.273000000     4.290000000    -2.588000000
H    -2.335000000     4.518000000    -2.606000000
C    -0.432000000     4.774000000    -1.508000000
C    -1.026000000     5.617000000    -0.432000000
H    -1.801000000     6.241000000    -0.881000000
H    -0.248000000     6.351000000    -0.210000000
C    -1.421000000     4.826000000     0.923000000
C    -2.672000000     4.117000000     0.969000000
H    -3.333000000     4.332000000     0.133000000
C    -0.489000000     4.362000000     1.898000000
C    -0.821000000     3.461000000     2.910000000
H    -0.004000000     3.138000000     3.551000000
C    -2.131000000     2.929000000     3.011000000
O    -2.355000000     1.892000000     3.853000000
C    -2.251000000     0.568000000     3.379000000
C    -1.345000000    -0.286000000     4.296000000
C    -1.416000000    -1.635000000     4.146000000
H    -2.138000000    -2.099000000     3.480000000
C    -0.393000000     0.222000000     5.223000000
H    -0.236000000     1.288000000     5.373000000
O    -3.622000000     0.130000000     3.237000000
H    -1.787000000     0.621000000     2.383000000
C    -3.088000000     3.308000000     2.027000000
C    -4.438000000     2.615000000     1.981000000
H    -5.043000000     3.345000000     1.440000000
H    -4.795000000     2.517000000     3.008000000
C    -4.376000000     1.305000000     1.266000000
C    -4.796000000     1.235000000    -0.068000000
H    -5.182000000     2.103000000    -0.596000000
C    -3.986000000     0.107000000     1.897000000
C    -3.948000000    -1.095000000     1.221000000
H    -3.777000000    -2.035000000     1.740000000
C    -4.257000000    -1.152000000    -0.099000000
O    -4.118000000    -2.325000000    -0.667000000
C    -2.933000000    -2.591000000    -1.502000000
C    -2.409000000    -3.955000000    -1.225000000
C    -2.741000000    -4.610000000    -0.002000000
H    -3.494000000    -4.255000000     0.697000000
C    -1.317000000    -4.515000000    -1.952000000
H    -0.974000000    -4.012000000    -2.852000000
O    -3.249000000    -2.387000000    -2.914000000
H    -2.150000000    -1.889000000    -1.181000000
C    -4.667000000     0.005000000    -0.788000000
C    -5.087000000    -0.149000000    -2.268000000
H    -5.823000000     0.597000000    -2.575000000
H    -5.508000000    -1.123000000    -2.528000000
C    -3.876000000    -0.027000000    -3.109000000
C    -3.011000000    -1.125000000    -3.375000000
C    -1.854000000    -0.938000000    -4.172000000
H    -1.235000000    -1.782000000    -4.466000000
C    -1.542000000     0.361000000    -4.506000000
O    -0.421000000     0.530000000    -5.228000000
C     0.713000000     0.814000000    -4.284000000
H     0.378000000     0.669000000    -3.246000000
C     1.898000000    -0.138000000    -4.424000000
C     3.068000000     0.124000000    -3.765000000
H     3.086000000     1.031000000    -3.168000000
C     1.763000000    -1.413000000    -5.001000000
H     0.863000000    -1.635000000    -5.570000000
C     2.889000000    -2.299000000    -5.149000000
O     2.696000000    -3.448000000    -5.788000000
C     4.063000000    -1.983000000    -4.484000000
H     4.924000000    -2.641000000    -4.567000000
C     4.179000000    -0.754000000    -3.863000000
O     5.315000000    -0.571000000    -3.122000000
C     5.696000000     0.696000000    -2.682000000
C     5.589000000     0.980000000    -1.292000000
H     4.815000000     0.469000000    -0.724000000
C     6.440000000     1.490000000    -3.577000000
H     6.526000000     1.146000000    -4.605000000
C     7.090000000     2.645000000    -3.118000000
H     7.560000000     3.388000000    -3.759000000
C     7.045000000     2.934000000    -1.708000000
H     7.627000000     3.767000000    -1.324000000
C     6.274000000     2.100000000    -0.839000000
O     6.262000000     2.350000000     0.528000000
C     5.153000000     2.701000000     1.285000000
C     5.222000000     2.733000000     2.655000000
H     6.155000000     2.403000000     3.105000000
C     4.178000000     3.236000000     3.449000000
O     4.371000000     3.191000000     4.851000000
C     3.333000000     2.890000000     5.687000000
C     2.741000000     1.652000000     5.723000000
H     3.039000000     0.908000000     4.989000000
C     3.010000000     3.770000000     6.702000000
H     3.506000000     4.736000000     6.648000000
C     2.160000000     3.409000000     7.779000000
H     1.962000000     4.144000000     8.555000000
C     1.619000000     2.157000000     7.824000000
H     0.977000000     1.859000000     8.649000000
C     1.845000000     1.292000000     6.711000000
O     1.444000000    -0.061000000     6.810000000
C     0.474000000    -0.598000000     5.940000000
C     0.402000000    -1.953000000     5.667000000
H     1.222000000    -2.596000000     5.977000000
C    -0.613000000    -2.497000000     4.910000000
O    -0.654000000    -3.839000000     4.585000000
C    -1.719000000    -4.576000000     4.310000000
C    -1.650000000    -5.436000000     3.189000000
H    -0.687000000    -5.611000000     2.716000000
C    -2.949000000    -4.431000000     4.946000000
H    -2.864000000    -3.794000000     5.822000000
C    -4.193000000    -5.000000000     4.436000000
H    -5.076000000    -5.010000000     5.070000000
C    -4.113000000    -5.661000000     3.190000000
H    -5.062000000    -5.978000000     2.766000000
C    -2.805000000    -5.954000000     2.631000000
O    -2.686000000    -6.546000000     1.429000000
C    -2.208000000    -5.843000000     0.292000000
C    -1.173000000    -6.451000000    -0.481000000
H    -0.696000000    -7.393000000    -0.223000000
C    -0.752000000    -5.802000000    -1.672000000
O     0.329000000    -6.239000000    -2.384000000
C     0.624000000    -5.917000000    -3.725000000
C    -0.189000000    -6.339000000    -4.725000000
H    -0.956000000    -7.080000000    -4.514000000
C    -0.058000000    -5.781000000    -6.013000000
H    -0.706000000    -6.242000000    -6.753000000
C     1.004000000    -4.937000000    -6.324000000
H     1.273000000    -4.788000000    -7.367000000
C     1.753000000    -4.440000000    -5.302000000
C     1.553000000    -4.880000000    -4.005000000
H     2.254000000    -4.499000000    -3.268000000
C     2.048000000    -1.852000000    -0.516000000
H     3.000000000    -1.810000000    -1.039000000
C     1.367000000    -0.632000000    -0.379000000
H     1.629000000     0.277000000    -0.914000000
C     0.144000000    -0.563000000     0.268000000
C    -0.772000000     0.665000000     0.175000000
H    -1.782000000     0.250000000     0.156000000
H    -0.676000000     1.426000000     0.952000000
H    -0.624000000     1.304000000    -0.698000000
C    -0.422000000    -1.735000000     0.787000000
H    -1.362000000    -1.661000000     1.327000000
C     0.294000000    -2.920000000     0.692000000
H    -0.151000000    -3.847000000     1.045000000
C     1.570000000    -3.019000000     0.067000000
C     2.453000000    -4.212000000    -0.015000000
O     2.106000000    -5.221000000     0.519000000
O     3.607000000    -4.070000000    -0.473000000
O     1.041000000    -8.851000000    -3.155000000
H     0.952000000    -7.950000000    -2.843000000
H     1.144000000    -9.371000000    -2.359000000
O     7.115000000    -3.546000000     2.105000000
H     6.389000000    -2.952000000     1.917000000
H     6.812000000    -4.400000000     1.797000000
O     6.048000000    -5.896000000    -4.806000000
H     5.770000000    -5.611000000    -3.935000000
H     6.701000000    -5.250000000    -5.073000000
O     5.461000000    -5.588000000     1.318000000
H     4.825000000    -5.089000000     0.805000000
H     5.754000000    -6.282000000     0.728000000
O     1.171000000    -9.762000000    -0.240000000
H     1.786000000    -9.047000000    -0.405000000
H     1.671000000   -10.392000000     0.278000000
O     1.865000000    -6.311000000     2.791000000
H     1.742000000    -5.926000000     1.923000000
H     2.778000000    -6.124000000     3.009000000
O     5.436000000    -8.113000000    -3.122000000
H     5.593000000    -8.870000000    -3.685000000
H     5.007000000    -7.475000000    -3.693000000
O     5.070000000    -5.816000000     4.182000000
H     5.178000000    -5.597000000     3.256000000
H     5.690000000    -6.530000000     4.333000000
O     6.537000000    -0.506000000     3.802000000
H     6.038000000    -0.518000000     4.619000000
H     6.126000000    -1.180000000     3.260000000
O     4.719000000    -2.366000000     1.153000000
H     4.345000000    -2.949000000     0.493000000
H     4.130000000    -2.445000000     1.904000000
O     8.137000000    -5.069000000    -0.682000000
H     8.662000000    -5.554000000    -0.046000000
H     8.625000000    -5.141000000    -1.501000000
O     0.780000000    -7.744000000     5.010000000
H     1.587000000    -7.388000000     5.383000000
H     0.799000000    -7.472000000     4.093000000
O     3.092000000    -2.627000000     3.340000000
H     3.682000000    -2.598000000     4.093000000
H     2.227000000    -2.782000000     3.720000000
O     3.088000000    -9.640000000     1.821000000
H     3.238000000    -8.916000000     1.213000000
H     3.848000000   -10.210000000     1.707000000
O     2.986000000    -7.664000000    -0.054000000
H     2.728000000    -6.792000000     0.244000000
H     3.909000000    -7.574000000    -0.290000000
O    -0.432000000    -8.621000000     2.670000000
H     0.508000000    -8.529000000     2.513000000
H    -0.816000000    -8.686000000     1.796000000
O     5.626000000    -5.101000000    -2.282000000
H     6.385000000    -5.039000000    -1.703000000
H     4.896000000    -4.772000000    -1.757000000
O     6.962000000    -2.044000000    -0.660000000
H     7.305000000    -2.737000000    -0.096000000
H     6.182000000    -1.727000000    -0.203000000
O     5.818000000    -7.486000000    -0.532000000
H     6.706000000    -7.811000000    -0.385000000
H     5.692000000    -7.555000000    -1.479000000
