218
-1466.51838
C     3.661000000     1.894000000     2.741000000
H     2.937000000     2.368000000     3.399000000
C     3.720000000     2.267000000     1.426000000
C     4.688000000     1.770000000     0.543000000
H     4.732000000     2.041000000    -0.509000000
C     2.608000000     3.232000000     0.921000000
O     2.040000000     4.120000000     1.898000000
H     1.786000000     2.530000000     0.713000000
O     2.957000000     3.854000000    -0.356000000
C     2.119000000     3.642000000    -1.379000000
C     2.336000000     2.658000000    -2.276000000
H     3.246000000     2.063000000    -2.265000000
C     1.513000000     2.552000000    -3.370000000
O     1.763000000     1.511000000    -4.229000000
C     0.299000000     3.289000000    -3.370000000
C    -0.647000000     3.051000000    -4.530000000
H    -1.303000000     3.909000000    -4.689000000
C    -1.566000000     1.864000000    -4.174000000
C    -2.817000000     2.114000000    -3.525000000
H    -3.139000000     3.123000000    -3.278000000
H    -0.047000000     2.815000000    -5.411000000
C    -0.003000000     4.197000000    -2.409000000
H    -0.938000000     4.752000000    -2.403000000
C     0.973000000     4.477000000    -1.429000000
C     0.547000000     5.513000000    -0.336000000
H    -0.184000000     6.214000000    -0.745000000
H     1.389000000     6.113000000     0.013000000
C    -0.058000000     4.856000000     0.856000000
C    -1.479000000     4.750000000     0.884000000
H    -2.130000000     5.335000000     0.239000000
C     0.707000000     4.249000000     1.870000000
C     0.002000000     3.668000000     2.929000000
H     0.564000000     3.178000000     3.720000000
C    -1.387000000     3.517000000     2.967000000
O    -1.966000000     2.694000000     3.918000000
C    -2.238000000     1.318000000     3.488000000
C    -1.847000000     0.398000000     4.654000000
C    -2.247000000    -0.951000000     4.631000000
H    -2.933000000    -1.285000000     3.857000000
C    -0.748000000     0.719000000     5.543000000
H    -0.248000000     1.677000000     5.418000000
O    -3.630000000     1.317000000     3.269000000
H    -1.738000000     1.002000000     2.561000000
C    -2.099000000     4.023000000     1.889000000
C    -3.658000000     3.890000000     1.862000000
H    -4.159000000     4.666000000     1.280000000
H    -4.067000000     3.990000000     2.869000000
C    -4.091000000     2.573000000     1.216000000
C    -4.457000000     2.542000000    -0.096000000
H    -4.438000000     3.468000000    -0.665000000
C    -4.144000000     1.402000000     2.010000000
C    -4.393000000     0.186000000     1.340000000
H    -4.272000000    -0.729000000     1.914000000
C    -4.519000000     0.137000000    -0.048000000
O    -4.616000000    -1.140000000    -0.622000000
C    -3.541000000    -1.519000000    -1.499000000
C    -3.184000000    -2.923000000    -1.153000000
C    -3.033000000    -3.411000000     0.180000000
H    -3.304000000    -2.848000000     1.069000000
C    -2.899000000    -3.780000000    -2.180000000
H    -2.977000000    -3.503000000    -3.228000000
O    -3.908000000    -1.338000000    -2.879000000
H    -2.743000000    -0.832000000    -1.180000000
C    -4.526000000     1.296000000    -0.751000000
C    -4.881000000     1.337000000    -2.266000000
H    -5.336000000     2.302000000    -2.500000000
H    -5.669000000     0.596000000    -2.418000000
C    -3.667000000     1.035000000    -3.148000000
C    -3.282000000    -0.297000000    -3.459000000
C    -2.033000000    -0.474000000    -3.958000000
H    -1.752000000    -1.500000000    -4.181000000
C    -1.154000000     0.569000000    -4.301000000
O     0.040000000     0.131000000    -4.856000000
C     1.175000000     0.214000000    -4.034000000
H     0.940000000     0.122000000    -2.964000000
C     2.152000000    -0.871000000    -4.369000000
C     3.531000000    -0.689000000    -4.247000000
H     3.990000000     0.275000000    -4.040000000
C     1.663000000    -2.127000000    -4.658000000
H     0.589000000    -2.281000000    -4.722000000
C     2.431000000    -3.246000000    -4.814000000
O     1.900000000    -4.469000000    -5.053000000
C     3.820000000    -3.068000000    -4.578000000
H     4.413000000    -3.973000000    -4.678000000
C     4.399000000    -1.776000000    -4.336000000
O     5.751000000    -1.551000000    -4.288000000
C     6.231000000    -0.601000000    -3.394000000
C     6.063000000    -0.781000000    -2.043000000
H     5.578000000    -1.647000000    -1.600000000
C     6.800000000     0.555000000    -3.988000000
H     6.741000000     0.769000000    -5.052000000
C     7.281000000     1.482000000    -3.087000000
H     7.557000000     2.492000000    -3.379000000
C     7.251000000     1.262000000    -1.663000000
H     7.478000000     2.034000000    -0.931000000
C     6.616000000     0.150000000    -1.179000000
O     6.383000000    -0.013000000     0.204000000
C     5.499000000     0.684000000     0.981000000
C     5.394000000     0.243000000     2.262000000
H     5.972000000    -0.614000000     2.599000000
C     4.522000000     0.841000000     3.133000000
O     4.350000000     0.270000000     4.336000000
C     3.712000000     0.919000000     5.399000000
C     2.653000000     0.196000000     5.980000000
H     2.292000000    -0.735000000     5.552000000
C     4.187000000     2.102000000     5.984000000
H     4.944000000     2.624000000     5.406000000
C     3.446000000     2.648000000     7.020000000
H     3.726000000     3.670000000     7.262000000
C     2.240000000     2.090000000     7.491000000
H     1.638000000     2.590000000     8.245000000
C     1.882000000     0.792000000     6.997000000
O     0.746000000     0.139000000     7.415000000
C    -0.289000000    -0.196000000     6.543000000
C    -0.891000000    -1.385000000     6.620000000
H    -0.569000000    -2.007000000     7.451000000
C    -1.825000000    -1.767000000     5.682000000
O    -2.416000000    -2.975000000     5.911000000
C    -3.194000000    -3.567000000     4.946000000
C    -2.587000000    -4.099000000     3.814000000
H    -1.524000000    -3.907000000     3.693000000
C    -4.588000000    -3.665000000     5.144000000
H    -5.092000000    -3.215000000     5.995000000
C    -5.305000000    -4.322000000     4.165000000
H    -6.327000000    -4.571000000     4.439000000
C    -4.716000000    -4.975000000     3.101000000
H    -5.270000000    -5.524000000     2.344000000
C    -3.363000000    -4.700000000     2.842000000
O    -2.759000000    -5.243000000     1.735000000
C    -2.746000000    -4.760000000     0.442000000
C    -2.432000000    -5.610000000    -0.633000000
H    -2.231000000    -6.670000000    -0.499000000
C    -2.523000000    -5.105000000    -1.948000000
O    -2.157000000    -6.005000000    -2.977000000
C    -1.468000000    -5.692000000    -4.053000000
C    -2.177000000    -5.464000000    -5.279000000
H    -3.228000000    -5.719000000    -5.384000000
C    -1.545000000    -4.823000000    -6.361000000
H    -2.122000000    -4.505000000    -7.225000000
C    -0.203000000    -4.625000000    -6.310000000
H     0.291000000    -4.231000000    -7.195000000
C     0.521000000    -4.813000000    -5.139000000
C    -0.105000000    -5.347000000    -3.978000000
H     0.435000000    -5.524000000    -3.051000000
C     2.319000000    -1.209000000     0.171000000
H     3.272000000    -1.328000000    -0.338000000
C     1.633000000    -0.087000000    -0.336000000
H     1.998000000     0.576000000    -1.116000000
C     0.281000000     0.028000000     0.044000000
C    -0.718000000     1.032000000    -0.531000000
H    -0.097000000     1.909000000    -0.723000000
H    -1.132000000     0.668000000    -1.474000000
H    -1.384000000     1.423000000     0.241000000
C    -0.272000000    -0.789000000     1.031000000
H    -1.347000000    -0.674000000     1.148000000
C     0.464000000    -1.875000000     1.590000000
H    -0.055000000    -2.466000000     2.341000000
C     1.715000000    -2.082000000     1.068000000
C     2.462000000    -3.272000000     1.535000000
O     1.918000000    -4.072000000     2.248000000
O     3.548000000    -3.512000000     1.053000000
O     7.360000000    -4.298000000     5.286000000
H     8.125000000    -3.811000000     4.981000000
H     6.886000000    -4.524000000     4.486000000
O     2.396000000    -8.788000000     1.227000000
H     1.648000000    -8.256000000     1.496000000
H     3.117000000    -8.485000000     1.778000000
O     3.796000000    -6.053000000     0.350000000
H     3.348000000    -5.225000000     0.523000000
H     3.900000000    -6.075000000    -0.601000000
O     3.131000000    -6.240000000     3.191000000
H     2.692000000    -5.430000000     2.931000000
H     3.846000000    -6.337000000     2.562000000
O     1.578000000    -6.981000000     5.486000000
H     0.878000000    -7.259000000     4.896000000
H     2.352000000    -6.918000000     4.926000000
O     3.069000000    -6.207000000    -2.579000000
H     3.277000000    -5.273000000    -2.595000000
H     3.108000000    -6.477000000    -3.496000000
O     6.529000000    -5.438000000     3.001000000
H     6.533000000    -5.668000000     2.072000000
H     6.708000000    -6.263000000     3.452000000
O     4.397000000    -3.556000000     3.737000000
H     4.021000000    -3.201000000     2.931000000
H     4.947000000    -4.283000000     3.445000000
O     0.684000000    -7.358000000    -1.071000000
H     1.436000000    -6.879000000    -1.421000000
H     0.742000000    -7.236000000    -0.123000000
O     6.358000000    -2.995000000     0.809000000
H     5.495000000    -3.294000000     1.095000000
H     6.262000000    -2.049000000     0.703000000
O     5.456000000    -2.581000000     5.968000000
H     6.181000000    -3.204000000     6.023000000
H     5.107000000    -2.697000000     5.085000000
O     1.174000000    -5.359000000     7.585000000
H     1.731000000    -4.745000000     7.107000000
H     1.109000000    -6.121000000     7.009000000
O     2.235000000    -3.401000000     5.765000000
H     3.105000000    -3.767000000     5.922000000
H     2.123000000    -3.448000000     4.815000000
O    -1.454000000    -7.020000000     3.788000000
H    -2.109000000    -6.479000000     3.347000000
H    -1.605000000    -6.867000000     4.720000000
O     0.476000000    -6.486000000     1.704000000
H     1.023000000    -5.781000000     2.052000000
H    -0.073000000    -6.749000000     2.442000000
O     3.633000000    -3.632000000    -1.763000000
H     3.232000000    -3.437000000    -0.917000000
H     3.192000000    -3.046000000    -2.378000000
O     9.012000000    -2.360000000    -0.094000000
H     9.254000000    -3.212000000    -0.457000000
H     8.067000000    -2.420000000     0.047000000
O     6.655000000    -7.228000000     0.725000000
H     6.138000000    -7.664000000     1.402000000
H     6.013000000    -6.737000000     0.212000000
O     6.223000000    -4.543000000    -1.712000000
H     6.554000000    -3.951000000    -1.037000000
H     5.278000000    -4.389000000    -1.723000000
