218
-1452.97944
C     4.628000000     1.695000000     1.944000000
H     4.227000000     2.330000000     2.730000000
C     4.287000000     1.970000000     0.575000000
C     4.930000000     1.190000000    -0.391000000
H     4.794000000     1.485000000    -1.428000000
C     3.215000000     3.010000000     0.219000000
O     2.934000000     4.006000000     1.224000000
H     2.302000000     2.399000000     0.158000000
O     3.364000000     3.602000000    -1.111000000
C     2.267000000     3.695000000    -1.890000000
C     2.107000000     2.692000000    -2.823000000
H     2.868000000     1.932000000    -2.979000000
C     0.915000000     2.546000000    -3.522000000
O     0.866000000     1.426000000    -4.265000000
C    -0.134000000     3.432000000    -3.287000000
C    -1.427000000     3.332000000    -4.081000000
H    -2.024000000     4.234000000    -4.229000000
C    -2.394000000     2.279000000    -3.452000000
C    -3.371000000     2.656000000    -2.464000000
H    -3.417000000     3.681000000    -2.106000000
H    -1.164000000     3.132000000    -5.122000000
C    -0.036000000     4.346000000    -2.239000000
H    -0.886000000     4.982000000    -2.004000000
C     1.158000000     4.498000000    -1.557000000
C     1.211000000     5.514000000    -0.438000000
H     0.618000000     6.359000000    -0.793000000
H     2.209000000     5.951000000    -0.353000000
C     0.655000000     4.868000000     0.839000000
C    -0.655000000     4.840000000     1.201000000
H    -1.412000000     5.370000000     0.631000000
C     1.618000000     4.163000000     1.607000000
C     1.316000000     3.498000000     2.734000000
H     2.027000000     2.898000000     3.296000000
C    -0.032000000     3.488000000     3.090000000
O    -0.294000000     2.631000000     4.127000000
C    -0.955000000     1.325000000     3.819000000
C    -0.319000000     0.196000000     4.633000000
C    -0.909000000    -1.057000000     4.660000000
H    -1.867000000    -1.134000000     4.151000000
C     0.901000000     0.359000000     5.334000000
H     1.392000000     1.322000000     5.220000000
O    -2.397000000     1.444000000     4.051000000
H    -0.742000000     1.069000000     2.771000000
C    -1.032000000     4.152000000     2.417000000
C    -2.408000000     4.080000000     2.924000000
H    -2.963000000     4.962000000     2.598000000
H    -2.511000000     4.139000000     4.010000000
C    -3.136000000     2.865000000     2.295000000
C    -3.839000000     2.985000000     1.092000000
H    -3.869000000     3.957000000     0.606000000
C    -3.145000000     1.618000000     2.961000000
C    -3.796000000     0.484000000     2.377000000
H    -3.833000000    -0.474000000     2.889000000
C    -4.360000000     0.629000000     1.090000000
O    -4.892000000    -0.551000000     0.477000000
C    -4.161000000    -1.108000000    -0.638000000
C    -4.110000000    -2.606000000    -0.673000000
C    -3.808000000    -3.230000000     0.543000000
H    -3.745000000    -2.600000000     1.427000000
C    -4.123000000    -3.403000000    -1.801000000
H    -4.298000000    -2.912000000    -2.755000000
O    -4.828000000    -0.637000000    -1.842000000
H    -3.159000000    -0.655000000    -0.604000000
C    -4.470000000     1.897000000     0.537000000
C    -5.167000000     2.046000000    -0.840000000
H    -5.538000000     3.068000000    -0.942000000
H    -6.079000000     1.445000000    -0.827000000
C    -4.273000000     1.669000000    -1.970000000
C    -4.186000000     0.366000000    -2.498000000
C    -3.239000000     0.021000000    -3.428000000
H    -3.081000000    -1.042000000    -3.588000000
C    -2.342000000     0.959000000    -3.879000000
O    -1.252000000     0.481000000    -4.589000000
C     0.027000000     0.324000000    -3.932000000
H    -0.035000000     0.440000000    -2.839000000
C     0.798000000    -0.924000000    -4.299000000
C     2.158000000    -0.954000000    -4.568000000
H     2.720000000    -0.031000000    -4.456000000
C     0.178000000    -2.175000000    -4.442000000
H    -0.891000000    -2.231000000    -4.248000000
C     0.846000000    -3.361000000    -4.770000000
O     0.152000000    -4.585000000    -4.828000000
C     2.202000000    -3.307000000    -5.085000000
H     2.742000000    -4.188000000    -5.420000000
C     2.878000000    -2.105000000    -4.883000000
O     4.225000000    -2.112000000    -5.032000000
C     5.043000000    -1.291000000    -4.365000000
C     5.208000000    -1.431000000    -2.991000000
H     4.542000000    -2.118000000    -2.476000000
C     5.739000000    -0.346000000    -5.097000000
H     5.697000000    -0.247000000    -6.179000000
C     6.615000000     0.543000000    -4.370000000
H     7.287000000     1.205000000    -4.910000000
C     6.819000000     0.384000000    -3.043000000
H     7.422000000     1.105000000    -2.497000000
C     6.113000000    -0.600000000    -2.355000000
O     6.202000000    -0.744000000    -0.995000000
C     5.713000000     0.118000000    -0.067000000
C     5.895000000    -0.158000000     1.295000000
H     6.426000000    -1.067000000     1.566000000
C     5.461000000     0.642000000     2.296000000
O     5.708000000     0.187000000     3.536000000
C     5.370000000     0.703000000     4.752000000
C     4.366000000     0.013000000     5.412000000
H     4.153000000    -1.006000000     5.096000000
C     5.671000000     2.013000000     5.134000000
H     6.470000000     2.561000000     4.643000000
C     4.945000000     2.499000000     6.286000000
H     5.132000000     3.500000000     6.667000000
C     3.859000000     1.870000000     6.914000000
H     3.364000000     2.307000000     7.777000000
C     3.655000000     0.557000000     6.458000000
O     2.579000000    -0.216000000     6.951000000
C     1.395000000    -0.578000000     6.262000000
C     0.752000000    -1.765000000     6.306000000
H     1.152000000    -2.621000000     6.843000000
C    -0.391000000    -2.052000000     5.536000000
O    -1.116000000    -3.268000000     5.573000000
C    -2.289000000    -3.477000000     4.839000000
C    -2.335000000    -4.353000000     3.783000000
H    -1.431000000    -4.814000000     3.393000000
C    -3.471000000    -2.953000000     5.345000000
H    -3.379000000    -2.468000000     6.314000000
C    -4.713000000    -3.455000000     4.824000000
H    -5.685000000    -3.188000000     5.232000000
C    -4.725000000    -4.218000000     3.631000000
H    -5.675000000    -4.329000000     3.114000000
C    -3.487000000    -4.614000000     3.005000000
O    -3.488000000    -5.271000000     1.847000000
C    -3.675000000    -4.625000000     0.632000000
C    -3.697000000    -5.431000000    -0.541000000
H    -3.604000000    -6.514000000    -0.560000000
C    -3.946000000    -4.791000000    -1.708000000
O    -4.053000000    -5.646000000    -2.844000000
C    -3.262000000    -5.461000000    -3.987000000
C    -3.844000000    -5.475000000    -5.231000000
H    -4.867000000    -5.807000000    -5.391000000
C    -3.147000000    -5.135000000    -6.375000000
H    -3.553000000    -5.216000000    -7.380000000
C    -1.820000000    -4.807000000    -6.238000000
H    -1.200000000    -4.569000000    -7.099000000
C    -1.217000000    -4.922000000    -4.965000000
C    -1.930000000    -5.078000000    -3.797000000
H    -1.486000000    -5.126000000    -2.806000000
C     2.208000000    -1.267000000     0.437000000
H     3.258000000    -1.379000000     0.182000000
C     1.503000000    -0.194000000    -0.101000000
H     2.067000000     0.447000000    -0.775000000
C     0.129000000     0.025000000     0.251000000
C    -0.613000000     1.135000000    -0.300000000
H    -1.256000000     0.773000000    -1.105000000
H    -1.342000000     1.497000000     0.428000000
H     0.089000000     1.837000000    -0.754000000
C    -0.571000000    -0.851000000     1.141000000
H    -1.608000000    -0.703000000     1.432000000
C     0.101000000    -2.022000000     1.568000000
H    -0.418000000    -2.726000000     2.214000000
C     1.495000000    -2.203000000     1.265000000
C     2.191000000    -3.448000000     1.823000000
O     1.550000000    -4.363000000     2.289000000
O     3.385000000    -3.594000000     1.469000000
O     3.041000000    -8.888000000     3.687000000
H     3.058000000    -8.246000000     4.396000000
H     3.322000000    -9.706000000     4.098000000
O     1.159000000    -6.445000000    -0.676000000
H     1.660000000    -6.487000000     0.138000000
H     0.959000000    -5.515000000    -0.787000000
O     2.731000000    -7.442000000     6.032000000
H     2.371000000    -6.785000000     5.436000000
H     3.553000000    -7.060000000     6.340000000
O     2.887000000    -6.563000000     1.438000000
H     2.664000000    -5.665000000     1.684000000
H     2.503000000    -7.103000000     2.128000000
O     0.552000000    -8.849000000     2.329000000
H     0.367000000    -7.911000000     2.382000000
H     1.430000000    -8.941000000     2.699000000
O     4.059000000    -5.333000000     7.497000000
H     3.587000000    -5.110000000     8.299000000
H     3.483000000    -5.040000000     6.791000000
O     4.108000000    -6.604000000    -3.283000000
H     3.371000000    -6.657000000    -3.892000000
H     3.746000000    -6.888000000    -2.444000000
O     6.510000000    -5.893000000    -0.247000000
H     6.452000000    -6.388000000     0.570000000
H     5.699000000    -5.386000000    -0.279000000
O     1.279000000    -3.458000000    -1.600000000
H     1.045000000    -2.905000000    -2.346000000
H     1.333000000    -2.852000000    -0.861000000
O     0.902000000    -4.891000000     7.711000000
H     0.851000000    -4.796000000     6.760000000
H     0.050000000    -5.247000000     7.962000000
O     6.169000000    -4.842000000    -3.074000000
H     5.694000000    -5.673000000    -3.094000000
H     5.752000000    -4.344000000    -2.371000000
O     2.761000000    -4.826000000     4.810000000
H     2.159000000    -4.544000000     4.122000000
H     3.586000000    -4.387000000     4.603000000
O     0.173000000    -7.932000000    -2.894000000
H     0.427000000    -7.383000000    -2.152000000
H    -0.678000000    -8.293000000    -2.644000000
O     0.011000000    -6.345000000     1.988000000
H     0.558000000    -5.599000000     2.233000000
H    -0.510000000    -6.028000000     1.251000000
O     4.156000000    -4.320000000    -1.043000000
H     3.829000000    -4.108000000    -0.168000000
H     3.366000000    -4.437000000    -1.571000000
O     4.887000000    -3.406000000     3.794000000
H     5.761000000    -3.173000000     3.480000000
H     4.398000000    -3.624000000     3.000000000
O     4.011000000    -7.807000000    -0.732000000
H     3.353000000    -7.591000000    -0.071000000
H     4.849000000    -7.668000000    -0.291000000
O     7.809000000    -5.789000000     3.771000000
H     8.544000000    -6.352000000     4.017000000
H     7.034000000    -6.332000000     3.913000000
O     5.676000000    -7.517000000     1.845000000
H     5.950000000    -8.290000000     2.339000000
H     4.816000000    -7.297000000     2.203000000
