218
-1464.83106
C     3.926000000     1.429000000     2.294000000
H     3.027000000     1.612000000     2.877000000
C     4.021000000     2.048000000     1.063000000
C     5.064000000     1.648000000     0.218000000
H     5.040000000     2.076000000    -0.780000000
C     2.922000000     2.992000000     0.515000000
O     2.528000000     3.990000000     1.490000000
H     2.105000000     2.326000000     0.201000000
O     3.286000000     3.793000000    -0.691000000
C     2.364000000     3.744000000    -1.696000000
C     2.583000000     2.965000000    -2.833000000
H     3.445000000     2.304000000    -2.782000000
C     1.516000000     2.760000000    -3.729000000
O     1.578000000     1.637000000    -4.520000000
C     0.322000000     3.445000000    -3.571000000
C    -0.862000000     3.277000000    -4.546000000
H    -1.481000000     4.173000000    -4.463000000
C    -1.815000000     2.147000000    -4.083000000
C    -2.901000000     2.506000000    -3.371000000
H    -3.069000000     3.559000000    -3.161000000
H    -0.504000000     3.028000000    -5.546000000
C     0.171000000     4.354000000    -2.445000000
H    -0.671000000     5.040000000    -2.390000000
C     1.190000000     4.485000000    -1.575000000
C     0.978000000     5.502000000    -0.439000000
H     0.408000000     6.367000000    -0.785000000
H     1.954000000     5.953000000    -0.254000000
C     0.373000000     4.855000000     0.755000000
C    -0.963000000     4.857000000     0.968000000
H    -1.578000000     5.383000000     0.243000000
C     1.151000000     4.154000000     1.686000000
C     0.592000000     3.504000000     2.792000000
H     1.208000000     2.909000000     3.461000000
C    -0.713000000     3.583000000     3.040000000
O    -1.163000000     2.841000000     4.094000000
C    -1.818000000     1.585000000     3.909000000
C    -1.559000000     0.504000000     4.969000000
C    -2.458000000    -0.525000000     5.190000000
H    -3.392000000    -0.508000000     4.634000000
C    -0.303000000     0.472000000     5.580000000
H     0.376000000     1.289000000     5.348000000
O    -3.240000000     1.793000000     3.757000000
H    -1.277000000     1.270000000     3.004000000
C    -1.527000000     4.237000000     2.100000000
C    -3.039000000     4.241000000     2.212000000
H    -3.455000000     5.061000000     1.623000000
H    -3.362000000     4.361000000     3.248000000
C    -3.635000000     2.947000000     1.731000000
C    -4.071000000     2.927000000     0.400000000
H    -4.020000000     3.834000000    -0.198000000
C    -3.704000000     1.785000000     2.507000000
C    -4.073000000     0.590000000     1.869000000
H    -3.984000000    -0.299000000     2.489000000
C    -4.301000000     0.530000000     0.510000000
O    -4.491000000    -0.726000000    -0.041000000
C    -3.507000000    -1.197000000    -0.963000000
C    -3.278000000    -2.729000000    -0.739000000
C    -3.246000000    -3.280000000     0.564000000
H    -3.617000000    -2.697000000     1.403000000
C    -2.869000000    -3.565000000    -1.784000000
H    -2.729000000    -3.221000000    -2.805000000
O    -3.868000000    -0.894000000    -2.384000000
H    -2.490000000    -0.779000000    -0.930000000
C    -4.368000000     1.724000000    -0.248000000
C    -4.779000000     1.759000000    -1.701000000
H    -5.265000000     2.733000000    -1.782000000
H    -5.585000000     1.036000000    -1.839000000
C    -3.598000000     1.477000000    -2.706000000
C    -3.232000000     0.140000000    -2.930000000
C    -2.200000000    -0.176000000    -3.794000000
H    -1.864000000    -1.196000000    -3.959000000
C    -1.471000000     0.832000000    -4.431000000
O    -0.309000000     0.497000000    -5.060000000
C     0.818000000     0.439000000    -4.281000000
H     0.557000000     0.391000000    -3.213000000
C     1.589000000    -0.880000000    -4.609000000
C     2.848000000    -1.028000000    -4.062000000
H     3.239000000    -0.194000000    -3.484000000
C     0.971000000    -1.901000000    -5.263000000
H    -0.029000000    -1.835000000    -5.684000000
C     1.683000000    -3.133000000    -5.396000000
O     1.061000000    -4.208000000    -5.938000000
C     2.978000000    -3.321000000    -4.855000000
H     3.540000000    -4.251000000    -4.843000000
C     3.571000000    -2.202000000    -4.188000000
O     4.778000000    -2.412000000    -3.557000000
C     5.645000000    -1.364000000    -3.336000000
C     5.763000000    -1.035000000    -1.941000000
H     5.229000000    -1.530000000    -1.134000000
C     6.279000000    -0.523000000    -4.306000000
H     5.983000000    -0.634000000    -5.346000000
C     7.118000000     0.530000000    -3.897000000
H     7.667000000     1.151000000    -4.601000000
C     7.256000000     0.785000000    -2.538000000
H     7.851000000     1.611000000    -2.155000000
C     6.597000000    -0.014000000    -1.562000000
O     6.891000000     0.239000000    -0.247000000
C     5.934000000     0.693000000     0.627000000
C     5.889000000     0.146000000     1.874000000
H     6.680000000    -0.510000000     2.228000000
C     4.851000000     0.485000000     2.746000000
O     4.708000000    -0.189000000     4.013000000
C     4.031000000     0.318000000     5.171000000
C     3.137000000    -0.425000000     5.830000000
H     2.829000000    -1.402000000     5.467000000
C     4.271000000     1.632000000     5.507000000
H     4.893000000     2.203000000     4.822000000
C     3.503000000     2.309000000     6.384000000
H     3.506000000     3.376000000     6.594000000
C     2.479000000     1.609000000     6.992000000
H     1.790000000     2.160000000     7.627000000
C     2.246000000     0.226000000     6.707000000
O     1.139000000    -0.386000000     7.266000000
C     0.007000000    -0.514000000     6.509000000
C    -0.906000000    -1.559000000     6.692000000
H    -0.611000000    -2.318000000     7.411000000
C    -2.053000000    -1.641000000     5.901000000
O    -2.862000000    -2.647000000     6.196000000
C    -3.547000000    -3.248000000     5.183000000
C    -2.877000000    -3.732000000     4.083000000
H    -1.791000000    -3.678000000     4.089000000
C    -4.944000000    -3.444000000     5.285000000
H    -5.495000000    -3.049000000     6.135000000
C    -5.629000000    -4.163000000     4.294000000
H    -6.712000000    -4.232000000     4.232000000
C    -4.954000000    -4.695000000     3.217000000
H    -5.472000000    -5.181000000     2.394000000
C    -3.561000000    -4.487000000     3.100000000
O    -2.822000000    -5.098000000     2.097000000
C    -2.892000000    -4.603000000     0.797000000
C    -2.427000000    -5.402000000    -0.280000000
H    -1.977000000    -6.390000000    -0.222000000
C    -2.472000000    -4.875000000    -1.547000000
O    -2.081000000    -5.746000000    -2.505000000
C    -1.749000000    -5.460000000    -3.834000000
C    -2.777000000    -5.602000000    -4.816000000
H    -3.734000000    -5.994000000    -4.480000000
C    -2.400000000    -5.574000000    -6.156000000
H    -3.021000000    -5.918000000    -6.979000000
C    -1.164000000    -5.034000000    -6.444000000
H    -1.007000000    -4.899000000    -7.511000000
C    -0.172000000    -4.708000000    -5.479000000
C    -0.436000000    -5.087000000    -4.159000000
H     0.341000000    -5.007000000    -3.403000000
C     2.246000000    -1.394000000    -0.222000000
H     3.165000000    -1.710000000    -0.709000000
C     1.494000000    -0.243000000    -0.668000000
H     1.873000000     0.330000000    -1.510000000
C     0.385000000     0.085000000     0.001000000
C    -0.398000000     1.286000000    -0.544000000
H     0.060000000     2.141000000    -0.043000000
H    -0.204000000     1.371000000    -1.615000000
H    -1.453000000     1.194000000    -0.276000000
C    -0.113000000    -0.676000000     1.099000000
H    -1.125000000    -0.423000000     1.405000000
C     0.658000000    -1.790000000     1.540000000
H     0.369000000    -2.441000000     2.361000000
C     1.796000000    -2.122000000     0.838000000
C     2.628000000    -3.286000000     1.280000000
O     2.341000000    -3.973000000     2.226000000
O     3.674000000    -3.379000000     0.693000000
O     9.183000000    -3.755000000     0.433000000
H     8.260000000    -3.710000000     0.682000000
H     9.657000000    -3.710000000     1.264000000
O     0.151000000    -8.742000000     1.288000000
H     0.480000000    -9.062000000     0.448000000
H     0.423000000    -7.824000000     1.318000000
O     1.784000000    -6.374000000     7.224000000
H     0.911000000    -6.160000000     6.895000000
H     2.328000000    -5.632000000     6.960000000
O     4.578000000    -5.688000000     2.900000000
H     3.652000000    -5.469000000     2.790000000
H     4.938000000    -4.959000000     3.404000000
O    -0.011000000    -7.113000000     4.264000000
H     0.036000000    -6.531000000     3.506000000
H     0.881000000    -7.445000000     4.368000000
O     6.351000000    -3.616000000     1.001000000
H     6.422000000    -3.941000000     1.899000000
H     5.417000000    -3.445000000     0.882000000
O     0.395000000    -6.680000000    -0.662000000
H     1.164000000    -6.972000000    -1.151000000
H    -0.276000000    -6.545000000    -1.331000000
O    -0.752000000    -5.508000000     6.403000000
H    -0.720000000    -4.687000000     5.912000000
H    -0.982000000    -6.169000000     5.749000000
O     0.556000000    -3.735000000     4.617000000
H     0.794000000    -3.799000000     3.693000000
H     1.349000000    -3.990000000     5.088000000
O     0.760000000    -5.864000000     1.784000000
H     1.533000000    -5.303000000     1.847000000
H     0.752000000    -6.161000000     0.874000000
O     3.445000000    -4.403000000    -1.587000000
H     3.510000000    -4.114000000    -0.677000000
H     3.306000000    -3.598000000    -2.085000000
O     4.010000000    -3.078000000     4.070000000
H     4.156000000    -2.140000000     3.945000000
H     3.521000000    -3.349000000     3.293000000
O     2.330000000    -6.800000000    -2.607000000
H     2.718000000    -5.994000000    -2.267000000
H     2.974000000    -7.131000000    -3.233000000
O     4.626000000    -9.659000000    -0.777000000
H     5.519000000    -9.969000000    -0.931000000
H     4.735000000    -8.877000000    -0.235000000
O     7.198000000    -4.210000000     3.609000000
H     7.427000000    -4.938000000     3.032000000
H     7.132000000    -4.604000000     4.479000000
O     5.292000000    -7.309000000     0.453000000
H     5.666000000    -6.693000000    -0.177000000
H     5.095000000    -6.775000000     1.222000000
O     3.163000000    -4.228000000     6.810000000
H     3.250000000    -3.756000000     7.637000000
H     3.693000000    -3.727000000     6.191000000
O     4.724000000    -8.187000000     3.905000000
H     4.644000000    -7.327000000     3.494000000
H     4.436000000    -8.803000000     3.231000000
O     6.383000000    -4.485000000    -1.633000000
H     6.491000000    -4.064000000    -0.780000000
H     5.441000000    -4.452000000    -1.799000000
