218
-1445.06881
C     4.491000000     2.059000000     1.865000000
H     3.831000000     2.427000000     2.646000000
C     4.167000000     2.426000000     0.573000000
C     4.982000000     1.989000000    -0.516000000
H     4.684000000     2.242000000    -1.531000000
C     2.927000000     3.176000000     0.231000000
O     2.429000000     4.090000000     1.262000000
H     2.204000000     2.376000000     0.013000000
O     3.098000000     3.962000000    -0.998000000
C     2.080000000     3.944000000    -1.866000000
C     2.134000000     2.959000000    -2.864000000
H     3.071000000     2.413000000    -2.942000000
C     1.016000000     2.635000000    -3.670000000
O     1.053000000     1.557000000    -4.498000000
C    -0.229000000     3.379000000    -3.509000000
C    -1.478000000     3.052000000    -4.310000000
H    -2.100000000     3.949000000    -4.346000000
C    -2.303000000     1.939000000    -3.672000000
C    -3.421000000     2.202000000    -2.858000000
H    -3.693000000     3.244000000    -2.705000000
H    -1.270000000     2.718000000    -5.329000000
C    -0.228000000     4.395000000    -2.555000000
H    -1.139000000     4.988000000    -2.568000000
C     0.881000000     4.652000000    -1.733000000
C     0.688000000     5.645000000    -0.565000000
H     0.012000000     6.444000000    -0.878000000
H     1.669000000     6.081000000    -0.364000000
C     0.239000000     4.913000000     0.701000000
C    -1.133000000     4.825000000     0.948000000
H    -1.842000000     5.272000000     0.255000000
C     1.106000000     4.207000000     1.481000000
C     0.608000000     3.531000000     2.613000000
H     1.264000000     3.018000000     3.313000000
C    -0.745000000     3.481000000     2.916000000
O    -1.108000000     2.745000000     3.969000000
C    -1.788000000     1.444000000     3.685000000
C    -1.151000000     0.211000000     4.449000000
C    -1.949000000    -0.753000000     5.124000000
H    -3.006000000    -0.587000000     5.317000000
C     0.215000000     0.012000000     4.298000000
H     0.876000000     0.709000000     3.789000000
O    -3.194000000     1.491000000     3.894000000
H    -1.530000000     1.288000000     2.627000000
C    -1.624000000     4.126000000     2.062000000
C    -3.140000000     4.097000000     2.347000000
H    -3.570000000     4.920000000     1.772000000
H    -3.339000000     4.290000000     3.403000000
C    -3.728000000     2.730000000     1.896000000
C    -4.293000000     2.685000000     0.664000000
H    -4.216000000     3.515000000    -0.033000000
C    -3.835000000     1.565000000     2.682000000
C    -4.322000000     0.417000000     2.167000000
H    -4.416000000    -0.419000000     2.856000000
C    -4.688000000     0.401000000     0.836000000
O    -4.999000000    -0.793000000     0.306000000
C    -3.898000000    -1.368000000    -0.376000000
C    -3.465000000    -2.777000000    -0.051000000
C    -4.007000000    -3.475000000     1.015000000
H    -4.690000000    -3.001000000     1.714000000
C    -2.531000000    -3.362000000    -0.895000000
H    -2.150000000    -2.795000000    -1.741000000
O    -4.067000000    -1.239000000    -1.778000000
H    -3.014000000    -0.802000000    -0.049000000
C    -4.750000000     1.506000000     0.133000000
C    -5.301000000     1.474000000    -1.259000000
H    -5.631000000     2.486000000    -1.505000000
H    -6.145000000     0.787000000    -1.339000000
C    -4.145000000     1.167000000    -2.252000000
C    -3.697000000    -0.137000000    -2.480000000
C    -2.607000000    -0.404000000    -3.285000000
H    -2.429000000    -1.449000000    -3.529000000
C    -1.953000000     0.610000000    -3.884000000
O    -0.886000000     0.345000000    -4.668000000
C     0.421000000     0.345000000    -4.047000000
H     0.398000000     0.485000000    -2.956000000
C     1.374000000    -0.794000000    -4.434000000
C     2.759000000    -0.650000000    -4.350000000
H     3.124000000     0.356000000    -4.160000000
C     0.759000000    -1.987000000    -4.814000000
H    -0.321000000    -2.100000000    -4.773000000
C     1.537000000    -3.051000000    -5.101000000
O     1.036000000    -4.345000000    -5.416000000
C     2.932000000    -2.903000000    -5.126000000
H     3.582000000    -3.703000000    -5.470000000
C     3.563000000    -1.709000000    -4.787000000
O     4.935000000    -1.596000000    -4.876000000
C     5.586000000    -0.487000000    -4.376000000
C     5.925000000    -0.451000000    -3.033000000
H     5.798000000    -1.336000000    -2.415000000
C     5.842000000     0.592000000    -5.177000000
H     5.613000000     0.454000000    -6.230000000
C     6.483000000     1.689000000    -4.659000000
H     6.872000000     2.446000000    -5.334000000
C     6.812000000     1.746000000    -3.320000000
H     7.486000000     2.512000000    -2.945000000
C     6.525000000     0.640000000    -2.513000000
O     6.850000000     0.685000000    -1.217000000
C     6.148000000     1.337000000    -0.250000000
C     6.550000000     1.031000000     1.088000000
H     7.435000000     0.445000000     1.323000000
C     5.654000000     1.303000000     2.155000000
O     6.021000000     0.999000000     3.434000000
C     5.138000000     0.631000000     4.325000000
C     4.195000000    -0.334000000     4.064000000
H     4.235000000    -1.063000000     3.258000000
C     5.108000000     1.347000000     5.528000000
H     5.961000000     1.962000000     5.805000000
C     4.002000000     1.131000000     6.393000000
H     3.945000000     1.588000000     7.378000000
C     3.020000000     0.158000000     6.161000000
H     2.191000000     0.122000000     6.863000000
C     3.176000000    -0.547000000     4.977000000
O     2.155000000    -1.447000000     4.703000000
C     0.750000000    -1.148000000     4.849000000
C    -0.008000000    -2.177000000     5.420000000
H     0.388000000    -3.144000000     5.721000000
C    -1.381000000    -1.953000000     5.519000000
O    -2.199000000    -2.871000000     6.028000000
C    -3.194000000    -3.471000000     5.402000000
C    -2.965000000    -4.202000000     4.247000000
H    -1.997000000    -4.294000000     3.762000000
C    -4.434000000    -3.272000000     5.897000000
H    -4.541000000    -2.716000000     6.825000000
C    -5.535000000    -3.799000000     5.215000000
H    -6.578000000    -3.747000000     5.516000000
C    -5.315000000    -4.542000000     4.030000000
H    -6.189000000    -4.828000000     3.450000000
C    -4.006000000    -4.760000000     3.607000000
O    -3.856000000    -5.388000000     2.408000000
C    -3.561000000    -4.763000000     1.246000000
C    -2.559000000    -5.313000000     0.480000000
H    -2.145000000    -6.286000000     0.735000000
C    -1.997000000    -4.607000000    -0.525000000
O    -1.008000000    -5.180000000    -1.228000000
C    -1.098000000    -5.345000000    -2.567000000
C    -2.185000000    -5.955000000    -3.164000000
H    -3.015000000    -6.344000000    -2.580000000
C    -2.205000000    -5.972000000    -4.655000000
H    -3.086000000    -6.315000000    -5.191000000
C    -1.096000000    -5.479000000    -5.365000000
H    -1.173000000    -5.451000000    -6.449000000
C    -0.053000000    -4.864000000    -4.679000000
C    -0.074000000    -4.858000000    -3.312000000
H     0.675000000    -4.274000000    -2.782000000
C     2.351000000    -1.767000000     0.450000000
H     3.390000000    -1.922000000     0.173000000
C     1.723000000    -0.642000000     0.007000000
H     2.317000000     0.138000000    -0.462000000
C     0.405000000    -0.408000000     0.311000000
C    -0.267000000     0.877000000    -0.222000000
H    -0.224000000     1.695000000     0.500000000
H     0.246000000     1.291000000    -1.093000000
H    -1.325000000     0.688000000    -0.417000000
C    -0.292000000    -1.264000000     1.205000000
H    -1.283000000    -0.960000000     1.533000000
C     0.362000000    -2.432000000     1.574000000
H    -0.171000000    -3.138000000     2.207000000
C     1.666000000    -2.698000000     1.140000000
C     2.383000000    -3.898000000     1.782000000
O     1.885000000    -4.719000000     2.535000000
O     3.597000000    -3.901000000     1.672000000
O     5.779000000    -5.307000000     4.295000000
H     6.160000000    -4.500000000     3.947000000
H     4.843000000    -5.118000000     4.367000000
O     3.391000000    -3.962000000     4.817000000
H     3.176000000    -4.464000000     4.031000000
H     2.997000000    -3.103000000     4.668000000
O     7.088000000    -5.777000000    -1.004000000
H     6.238000000    -5.669000000    -0.577000000
H     7.495000000    -6.512000000    -0.546000000
O     0.108000000    -5.753000000     6.145000000
H     0.441000000    -5.270000000     6.901000000
H    -0.744000000    -6.084000000     6.429000000
O     3.236000000    -3.932000000     7.608000000
H     3.857000000    -3.235000000     7.823000000
H     3.256000000    -3.983000000     6.652000000
O     2.463000000    -6.971000000     5.960000000
H     1.639000000    -6.500000000     6.089000000
H     2.526000000    -7.088000000     5.012000000
O    -0.735000000    -8.455000000     1.206000000
H    -0.754000000    -7.600000000     1.636000000
H    -1.025000000    -9.068000000     1.882000000
O     3.768000000    -5.596000000    -2.415000000
H     2.821000000    -5.725000000    -2.470000000
H     4.018000000    -6.008000000    -1.588000000
O    -2.570000000    -7.608000000     4.053000000
H    -2.470000000    -7.246000000     4.934000000
H    -1.976000000    -7.088000000     3.512000000
O     7.275000000    -7.473000000     3.840000000
H     6.734000000    -6.714000000     4.058000000
H     6.650000000    -8.134000000     3.541000000
O    -0.346000000    -6.028000000     3.199000000
H     0.443000000    -5.681000000     2.783000000
H    -0.158000000    -5.993000000     4.137000000
O     2.648000000    -7.254000000     3.314000000
H     2.436000000    -6.345000000     3.101000000
H     2.913000000    -7.640000000     2.479000000
O     3.107000000    -8.351000000     0.769000000
H     3.341000000    -9.257000000     0.570000000
H     2.412000000    -8.140000000     0.145000000
O     8.407000000    -3.668000000     0.507000000
H     7.925000000    -4.340000000     0.025000000
H     9.019000000    -3.305000000    -0.134000000
O     1.077000000    -6.982000000    -0.678000000
H     0.632000000    -7.343000000     0.088000000
H     0.450000000    -6.360000000    -1.048000000
O     4.555000000    -5.699000000     0.201000000
H     4.386000000    -6.486000000     0.718000000
H     4.089000000    -5.003000000     0.664000000
O     1.835000000    -8.000000000    -2.954000000
H     2.639000000    -8.506000000    -2.838000000
H     1.721000000    -7.537000000    -2.124000000
O     6.036000000    -2.972000000     2.935000000
H     5.157000000    -3.132000000     2.591000000
H     6.581000000    -2.856000000     2.157000000
O     1.210000000    -9.889000000     3.887000000
H     0.307000000    -9.768000000     3.592000000
H     1.631000000    -9.045000000     3.723000000
