218
-1487.79875
C     4.484000000     1.783000000     1.704000000
H     4.115000000     2.405000000     2.517000000
C     4.138000000     1.824000000     0.367000000
C     4.731000000     1.040000000    -0.605000000
H     4.540000000     1.170000000    -1.667000000
C     3.021000000     2.775000000    -0.111000000
O     2.797000000     3.770000000     0.919000000
H     2.093000000     2.239000000    -0.359000000
O     3.422000000     3.502000000    -1.290000000
C     2.455000000     3.667000000    -2.192000000
C     2.428000000     2.780000000    -3.298000000
H     3.177000000     1.992000000    -3.274000000
C     1.279000000     2.526000000    -3.950000000
O     1.250000000     1.422000000    -4.787000000
C     0.094000000     3.335000000    -3.796000000
C    -1.244000000     3.077000000    -4.423000000
H    -1.706000000     4.064000000    -4.346000000
C    -2.113000000     1.996000000    -3.803000000
C    -3.235000000     2.334000000    -3.049000000
H    -3.555000000     3.372000000    -2.992000000
H    -1.079000000     2.853000000    -5.479000000
C     0.188000000     4.222000000    -2.682000000
H    -0.703000000     4.796000000    -2.443000000
C     1.330000000     4.403000000    -1.896000000
C     1.281000000     5.423000000    -0.710000000
H     0.702000000     6.304000000    -0.992000000
H     2.259000000     5.875000000    -0.534000000
C     0.685000000     4.806000000     0.570000000
C    -0.646000000     4.880000000     0.872000000
H    -1.285000000     5.493000000     0.240000000
C     1.489000000     4.048000000     1.340000000
C     0.978000000     3.488000000     2.518000000
H     1.670000000     2.911000000     3.127000000
C    -0.352000000     3.627000000     2.892000000
O    -0.753000000     2.803000000     3.901000000
C    -1.471000000     1.682000000     3.582000000
C    -1.058000000     0.512000000     4.493000000
C    -1.968000000    -0.297000000     5.142000000
H    -3.020000000    -0.026000000     5.106000000
C     0.282000000     0.110000000     4.533000000
H     1.076000000     0.592000000     3.968000000
O    -2.827000000     1.976000000     3.798000000
H    -1.248000000     1.472000000     2.525000000
C    -1.236000000     4.248000000     2.011000000
C    -2.726000000     4.354000000     2.274000000
H    -3.062000000     5.232000000     1.718000000
H    -2.868000000     4.589000000     3.331000000
C    -3.378000000     3.060000000     1.742000000
C    -3.868000000     3.035000000     0.411000000
H    -3.741000000     3.898000000    -0.237000000
C    -3.480000000     1.979000000     2.590000000
C    -4.045000000     0.773000000     2.139000000
H    -3.923000000    -0.115000000     2.753000000
C    -4.626000000     0.774000000     0.868000000
O    -4.991000000    -0.458000000     0.342000000
C    -3.934000000    -1.095000000    -0.404000000
C    -3.681000000    -2.534000000     0.043000000
C    -4.090000000    -3.003000000     1.282000000
H    -4.652000000    -2.355000000     1.950000000
C    -3.028000000    -3.425000000    -0.806000000
H    -2.688000000    -3.012000000    -1.752000000
O    -4.182000000    -1.014000000    -1.867000000
H    -3.016000000    -0.538000000    -0.163000000
C    -4.537000000     1.866000000    -0.003000000
C    -5.004000000     1.836000000    -1.461000000
H    -5.330000000     2.822000000    -1.797000000
H    -5.917000000     1.259000000    -1.621000000
C    -3.905000000     1.350000000    -2.312000000
C    -3.592000000    -0.001000000    -2.490000000
C    -2.550000000    -0.362000000    -3.362000000
H    -2.292000000    -1.415000000    -3.436000000
C    -1.808000000     0.650000000    -3.982000000
O    -0.864000000     0.220000000    -4.899000000
C     0.536000000     0.225000000    -4.405000000
H     0.475000000     0.213000000    -3.307000000
C     1.314000000    -0.965000000    -4.883000000
C     2.708000000    -0.836000000    -4.977000000
H     3.218000000     0.115000000    -4.847000000
C     0.738000000    -2.231000000    -4.817000000
H    -0.346000000    -2.282000000    -4.754000000
C     1.531000000    -3.367000000    -5.105000000
O     0.948000000    -4.660000000    -5.156000000
C     2.887000000    -3.205000000    -5.275000000
H     3.533000000    -4.079000000    -5.306000000
C     3.499000000    -1.962000000    -5.138000000
O     4.858000000    -1.849000000    -5.282000000
C     5.575000000    -0.902000000    -4.550000000
C     5.866000000    -1.233000000    -3.259000000
H     5.656000000    -2.193000000    -2.794000000
C     6.003000000     0.255000000    -5.125000000
H     5.746000000     0.479000000    -6.157000000
C     6.725000000     1.237000000    -4.383000000
H     7.021000000     2.168000000    -4.860000000
C     6.876000000     1.051000000    -3.017000000
H     7.351000000     1.743000000    -2.326000000
C     6.471000000    -0.208000000    -2.488000000
O     6.626000000    -0.359000000    -1.109000000
C     5.766000000     0.181000000    -0.170000000
C     6.105000000     0.073000000     1.142000000
H     7.058000000    -0.418000000     1.322000000
C     5.467000000     0.859000000     2.072000000
O     5.798000000     0.703000000     3.381000000
C     4.874000000     0.517000000     4.339000000
C     3.828000000    -0.398000000     4.212000000
H     3.827000000    -1.009000000     3.313000000
C     5.105000000     1.155000000     5.567000000
H     5.999000000     1.740000000     5.770000000
C     4.275000000     0.937000000     6.650000000
H     4.518000000     1.475000000     7.563000000
C     3.183000000     0.073000000     6.491000000
H     2.476000000    -0.048000000     7.308000000
C     3.006000000    -0.641000000     5.311000000
O     2.008000000    -1.532000000     4.980000000
C     0.654000000    -1.119000000     5.082000000
C    -0.307000000    -1.926000000     5.655000000
H    -0.063000000    -2.877000000     6.121000000
C    -1.588000000    -1.502000000     5.712000000
O    -2.488000000    -2.313000000     6.435000000
C    -3.610000000    -2.968000000     5.830000000
C    -3.515000000    -3.416000000     4.519000000
H    -2.606000000    -3.510000000     3.931000000
C    -4.824000000    -2.964000000     6.492000000
H    -4.844000000    -2.514000000     7.482000000
C    -5.927000000    -3.542000000     5.888000000
H    -6.898000000    -3.650000000     6.364000000
C    -5.803000000    -4.147000000     4.634000000
H    -6.648000000    -4.698000000     4.227000000
C    -4.613000000    -4.069000000     3.925000000
O    -4.466000000    -4.856000000     2.797000000
C    -3.943000000    -4.346000000     1.639000000
C    -3.075000000    -5.104000000     0.889000000
H    -2.735000000    -6.061000000     1.275000000
C    -2.642000000    -4.658000000    -0.370000000
O    -1.913000000    -5.433000000    -1.215000000
C    -1.706000000    -5.306000000    -2.629000000
C    -2.816000000    -5.262000000    -3.447000000
H    -3.776000000    -5.443000000    -2.972000000
C    -2.719000000    -5.035000000    -4.814000000
H    -3.620000000    -4.987000000    -5.421000000
C    -1.478000000    -4.831000000    -5.381000000
H    -1.479000000    -4.607000000    -6.444000000
C    -0.351000000    -4.881000000    -4.606000000
C    -0.423000000    -5.202000000    -3.203000000
H     0.467000000    -5.300000000    -2.587000000
C     2.183000000    -1.718000000     0.266000000
H     3.169000000    -1.932000000    -0.136000000
C     1.519000000    -0.617000000    -0.297000000
H     1.919000000    -0.046000000    -1.130000000
C     0.242000000    -0.299000000     0.140000000
C    -0.542000000     0.750000000    -0.637000000
H    -0.606000000     1.659000000    -0.037000000
H     0.014000000     0.936000000    -1.559000000
H    -1.481000000     0.316000000    -0.986000000
C    -0.350000000    -1.097000000     1.107000000
H    -1.304000000    -0.724000000     1.471000000
C     0.282000000    -2.140000000     1.744000000
H    -0.293000000    -2.698000000     2.479000000
C     1.546000000    -2.438000000     1.306000000
C     2.308000000    -3.683000000     1.961000000
O     1.727000000    -4.436000000     2.714000000
O     3.387000000    -4.079000000     1.586000000
O     6.369000000    -2.234000000     4.697000000
H     6.368000000    -2.469000000     3.769000000
H     5.531000000    -2.558000000     5.027000000
O     4.265000000    -3.884000000     5.469000000
H     4.072000000    -4.734000000     5.073000000
H     3.513000000    -3.338000000     5.242000000
O     5.549000000    -7.894000000    -0.556000000
H     5.250000000    -8.767000000    -0.303000000
H     5.176000000    -7.312000000     0.106000000
O     8.205000000    -4.999000000     3.652000000
H     7.811000000    -4.514000000     2.927000000
H     9.114000000    -4.697000000     3.675000000
O     4.391000000    -5.107000000    -3.348000000
H     3.792000000    -5.751000000    -2.969000000
H     4.425000000    -4.402000000    -2.701000000
O     1.035000000    -8.563000000     4.226000000
H     1.854000000    -8.786000000     3.785000000
H     1.307000000    -8.095000000     5.015000000
O     6.169000000    -6.236000000     5.616000000
H     6.253000000    -5.521000000     4.985000000
H     6.039000000    -5.798000000     6.458000000
O     1.807000000    -6.574000000     6.332000000
H     2.324000000    -6.160000000     5.640000000
H     2.221000000    -6.285000000     7.145000000
O    -1.026000000    -7.682000000     2.610000000
H    -1.471000000    -7.230000000     3.327000000
H    -0.202000000    -7.983000000     2.992000000
O     4.698000000    -3.709000000    -0.962000000
H     5.605000000    -3.914000000    -0.737000000
H     4.190000000    -4.009000000    -0.209000000
O    -0.438000000    -5.460000000     4.571000000
H     0.264000000    -4.999000000     4.113000000
H    -0.048000000    -5.724000000     5.404000000
O     3.238000000    -5.987000000     4.040000000
H     2.675000000    -5.386000000     3.551000000
H     3.950000000    -6.193000000     3.435000000
O     1.725000000    -8.469000000     0.473000000
H     1.229000000    -7.655000000     0.562000000
H     1.059000000    -9.143000000     0.344000000
O     7.033000000    -4.564000000    -0.303000000
H     7.734000000    -3.964000000    -0.558000000
H     7.354000000    -5.429000000    -0.560000000
O     0.888000000    -5.712000000     0.463000000
H     0.040000000    -5.469000000     0.092000000
H     1.100000000    -4.997000000     1.063000000
O     4.127000000    -6.555000000     1.045000000
H     3.256000000    -6.923000000     0.900000000
H     3.980000000    -5.611000000     1.110000000
O     2.653000000    -6.900000000    -2.072000000
H     2.204000000    -6.393000000    -1.395000000
H     2.516000000    -7.813000000    -1.818000000
O     5.964000000    -3.406000000     2.062000000
H     5.017000000    -3.450000000     1.929000000
H     6.335000000    -3.563000000     1.194000000
O     3.583000000    -9.145000000     2.960000000
H     3.301000000    -8.532000000     2.281000000
H     4.527000000    -9.002000000     3.034000000
