218
-1461.80689
C     5.239000000     2.121000000     0.810000000
H     4.652000000     2.529000000     1.629000000
C     4.810000000     2.185000000    -0.520000000
C     5.599000000     1.440000000    -1.450000000
H     5.479000000     1.497000000    -2.529000000
C     3.450000000     2.974000000    -0.833000000
O     3.134000000     4.109000000     0.000000000
H     2.605000000     2.281000000    -0.713000000
O     3.484000000     3.414000000    -2.161000000
C     2.335000000     3.174000000    -2.960000000
C     2.300000000     1.907000000    -3.505000000
H     3.140000000     1.218000000    -3.464000000
C     1.125000000     1.550000000    -4.119000000
O     1.038000000     0.252000000    -4.551000000
C     0.040000000     2.444000000    -4.262000000
C    -1.187000000     2.065000000    -4.999000000
H    -1.567000000     2.993000000    -5.432000000
C    -2.217000000     1.296000000    -4.128000000
C    -3.068000000     1.992000000    -3.258000000
H    -3.102000000     3.074000000    -3.359000000
H    -0.913000000     1.438000000    -5.850000000
C     0.113000000     3.668000000    -3.603000000
H    -0.726000000     4.358000000    -3.642000000
C     1.270000000     4.012000000    -2.946000000
C     1.430000000     5.231000000    -1.986000000
H     0.836000000     6.073000000    -2.349000000
H     2.415000000     5.699000000    -1.933000000
C     0.923000000     4.848000000    -0.599000000
C    -0.430000000     5.034000000    -0.245000000
H    -1.106000000     5.368000000    -1.028000000
C     1.841000000     4.326000000     0.349000000
C     1.444000000     3.990000000     1.587000000
H     2.079000000     3.452000000     2.286000000
C     0.096000000     4.091000000     1.896000000
O    -0.231000000     3.549000000     3.083000000
C    -1.140000000     2.452000000     3.136000000
C    -0.660000000     1.216000000     3.886000000
C    -1.467000000     0.542000000     4.834000000
H    -2.476000000     0.903000000     5.018000000
C     0.560000000     0.703000000     3.558000000
H     1.260000000     1.226000000     2.912000000
O    -2.458000000     2.815000000     3.453000000
H    -1.161000000     2.129000000     2.085000000
C    -0.831000000     4.723000000     1.047000000
C    -2.283000000     4.957000000     1.452000000
H    -2.691000000     5.762000000     0.838000000
H    -2.219000000     5.263000000     2.499000000
C    -3.144000000     3.710000000     1.315000000
C    -3.783000000     3.446000000     0.093000000
H    -3.628000000     4.105000000    -0.757000000
C    -3.341000000     2.795000000     2.343000000
C    -4.015000000     1.570000000     2.183000000
H    -3.915000000     0.831000000     2.974000000
C    -4.581000000     1.323000000     0.936000000
O    -5.120000000     0.120000000     0.759000000
C    -4.274000000    -0.886000000     0.111000000
C    -4.443000000    -2.236000000     0.727000000
C    -4.814000000    -2.369000000     2.090000000
H    -5.074000000    -1.466000000     2.635000000
C    -4.165000000    -3.457000000     0.039000000
H    -3.711000000    -3.418000000    -0.948000000
O    -4.546000000    -0.907000000    -1.378000000
H    -3.193000000    -0.712000000     0.219000000
C    -4.485000000     2.245000000    -0.084000000
C    -4.957000000     1.967000000    -1.553000000
H    -5.097000000     2.959000000    -1.987000000
H    -5.958000000     1.535000000    -1.614000000
C    -3.939000000     1.277000000    -2.367000000
C    -3.794000000    -0.143000000    -2.263000000
C    -2.836000000    -0.790000000    -2.987000000
H    -2.778000000    -1.873000000    -2.930000000
C    -2.080000000    -0.123000000    -3.939000000
O    -1.055000000    -0.792000000    -4.537000000
C     0.248000000    -0.713000000    -3.876000000
H     0.072000000    -0.347000000    -2.853000000
C     0.972000000    -2.084000000    -3.642000000
C     2.342000000    -2.150000000    -3.751000000
H     2.929000000    -1.335000000    -4.167000000
C     0.250000000    -3.075000000    -3.083000000
H    -0.794000000    -2.948000000    -2.809000000
C     0.940000000    -4.217000000    -2.581000000
O     0.314000000    -5.162000000    -1.807000000
C     2.268000000    -4.318000000    -2.817000000
H     2.722000000    -5.203000000    -2.378000000
C     2.997000000    -3.227000000    -3.276000000
O     4.348000000    -3.367000000    -3.376000000
C     5.256000000    -2.417000000    -3.735000000
C     5.932000000    -1.682000000    -2.723000000
H     5.719000000    -1.840000000    -1.669000000
C     5.601000000    -2.250000000    -5.113000000
H     5.055000000    -2.791000000    -5.882000000
C     6.503000000    -1.218000000    -5.390000000
H     6.887000000    -1.052000000    -6.394000000
C     7.103000000    -0.462000000    -4.409000000
H     7.706000000     0.401000000    -4.678000000
C     6.815000000    -0.661000000    -3.063000000
O     7.440000000     0.028000000    -2.050000000
C     6.698000000     0.733000000    -1.093000000
C     7.065000000     0.600000000     0.246000000
H     7.906000000    -0.003000000     0.578000000
C     6.309000000     1.281000000     1.141000000
O     6.548000000     0.981000000     2.523000000
C     5.550000000     0.706000000     3.419000000
C     4.456000000    -0.102000000     3.143000000
H     4.309000000    -0.543000000     2.160000000
C     5.604000000     1.307000000     4.657000000
H     6.546000000     1.811000000     4.855000000
C     4.515000000     1.262000000     5.537000000
H     4.559000000     1.722000000     6.521000000
C     3.473000000     0.454000000     5.326000000
H     2.716000000     0.400000000     6.104000000
C     3.413000000    -0.197000000     4.085000000
O     2.280000000    -0.964000000     3.929000000
C     0.969000000    -0.507000000     4.112000000
C     0.139000000    -1.187000000     4.978000000
H     0.553000000    -2.021000000     5.538000000
C    -1.051000000    -0.670000000     5.374000000
O    -1.819000000    -1.485000000     6.249000000
C    -3.184000000    -1.607000000     6.033000000
C    -3.644000000    -2.650000000     5.189000000
H    -2.986000000    -3.227000000     4.544000000
C    -4.052000000    -0.751000000     6.726000000
H    -3.702000000     0.105000000     7.297000000
C    -5.391000000    -0.946000000     6.492000000
H    -6.075000000    -0.201000000     6.893000000
C    -5.866000000    -1.880000000     5.556000000
H    -6.914000000    -1.873000000     5.269000000
C    -5.017000000    -2.763000000     4.974000000
O    -5.403000000    -3.690000000     4.029000000
C    -4.963000000    -3.595000000     2.723000000
C    -4.763000000    -4.795000000     1.955000000
H    -4.902000000    -5.745000000     2.464000000
C    -4.281000000    -4.711000000     0.649000000
O    -3.927000000    -5.822000000     0.023000000
C    -3.031000000    -5.837000000    -1.002000000
C    -3.545000000    -6.117000000    -2.270000000
H    -4.595000000    -6.325000000    -2.455000000
C    -2.751000000    -6.066000000    -3.413000000
H    -3.146000000    -6.308000000    -4.396000000
C    -1.420000000    -5.699000000    -3.286000000
H    -0.819000000    -5.749000000    -4.191000000
C    -0.982000000    -5.424000000    -1.973000000
C    -1.731000000    -5.494000000    -0.838000000
H    -1.335000000    -5.420000000     0.171000000
C     2.611000000    -1.884000000    -0.338000000
H     3.618000000    -1.915000000    -0.747000000
C     1.855000000    -0.715000000    -0.573000000
H     2.247000000     0.092000000    -1.187000000
C     0.601000000    -0.641000000    -0.015000000
C    -0.194000000     0.632000000    -0.088000000
H    -1.261000000     0.536000000     0.127000000
H     0.240000000     1.413000000     0.539000000
H    -0.057000000     1.088000000    -1.071000000
C     0.014000000    -1.750000000     0.596000000
H    -1.001000000    -1.783000000     0.983000000
C     0.759000000    -2.866000000     0.859000000
H     0.259000000    -3.714000000     1.318000000
C     2.105000000    -2.918000000     0.412000000
C     2.895000000    -4.191000000     0.832000000
O     2.353000000    -4.992000000     1.562000000
O     4.063000000    -4.373000000     0.563000000
O     4.972000000    -2.444000000     5.918000000
H     5.277000000    -1.536000000     5.892000000
H     4.999000000    -2.732000000     5.006000000
O     5.119000000    -5.947000000    -4.192000000
H     4.297000000    -6.431000000    -4.113000000
H     4.898000000    -5.055000000    -3.924000000
O     1.754000000    -4.914000000     6.627000000
H     1.659000000    -4.678000000     5.704000000
H     2.074000000    -5.816000000     6.612000000
O     4.507000000    -7.004000000    -0.176000000
H     4.990000000    -7.196000000     0.628000000
H     4.250000000    -6.086000000    -0.088000000
O     5.713000000    -5.981000000     4.492000000
H     4.792000000    -6.223000000     4.390000000
H     6.107000000    -6.727000000     4.945000000
O     4.791000000   -10.005000000     1.329000000
H     5.415000000    -9.279000000     1.365000000
H     3.932000000    -9.582000000     1.326000000
O     2.451000000    -8.855000000    -1.288000000
H     3.237000000    -8.343000000    -1.098000000
H     1.799000000    -8.532000000    -0.665000000
O    -0.784000000    -9.542000000    -0.536000000
H    -0.286000000    -8.778000000    -0.246000000
H    -0.260000000   -10.292000000    -0.253000000
O     1.656000000    -4.415000000     4.076000000
H     2.038000000    -4.891000000     3.339000000
H     2.237000000    -3.665000000     4.203000000
O    -1.168000000    -7.398000000     2.701000000
H    -1.824000000    -7.835000000     3.244000000
H    -1.309000000    -6.464000000     2.860000000
O     6.590000000    -4.246000000    -0.932000000
H     7.249000000    -4.581000000    -0.323000000
H     5.799000000    -4.155000000    -0.401000000
O     1.217000000    -8.871000000     3.876000000
H     0.517000000    -8.221000000     3.937000000
H     1.000000000    -9.385000000     3.098000000
O     6.434000000    -7.946000000     2.258000000
H     6.044000000    -7.269000000     2.811000000
H     7.377000000    -7.857000000     2.399000000
O    -1.298000000    -4.772000000     3.818000000
H    -1.379000000    -5.047000000     4.731000000
H    -0.444000000    -4.343000000     3.772000000
O     5.325000000    -3.327000000     2.988000000
H     4.937000000    -3.761000000     2.228000000
H     5.716000000    -4.038000000     3.496000000
O     0.888000000    -7.260000000     0.464000000
H     0.587000000    -6.919000000     1.306000000
H     1.341000000    -6.523000000     0.055000000
O     3.675000000    -6.929000000     2.904000000
H     2.874000000    -7.344000000     3.224000000
H     3.368000000    -6.242000000     2.312000000
O     8.208000000    -3.652000000     1.779000000
H     7.294000000    -3.376000000     1.852000000
H     8.170000000    -4.482000000     1.305000000
O     6.091000000    -7.653000000    -2.169000000
H     6.075000000    -6.983000000    -2.852000000
H     5.426000000    -7.372000000    -1.541000000
