218
-1446.71090
C     4.407000000     0.886000000     0.341000000
H     3.902000000     1.664000000     0.909000000
C     4.265000000     0.929000000    -1.053000000
C     4.810000000    -0.233000000    -1.725000000
H     4.590000000    -0.336000000    -2.785000000
C     3.319000000     1.910000000    -1.664000000
O     3.487000000     3.298000000    -1.241000000
H     2.333000000     1.530000000    -1.356000000
O     3.324000000     1.811000000    -3.141000000
C     2.133000000     1.686000000    -3.847000000
C     1.767000000     0.432000000    -4.267000000
H     2.466000000    -0.387000000    -4.116000000
C     0.456000000     0.175000000    -4.697000000
O     0.056000000    -1.082000000    -5.061000000
C    -0.406000000     1.273000000    -4.773000000
C    -1.878000000     1.031000000    -5.213000000
H    -2.226000000     1.893000000    -5.784000000
C    -2.793000000     0.564000000    -4.012000000
C    -3.492000000     1.516000000    -3.233000000
H    -3.547000000     2.592000000    -3.376000000
H    -1.730000000     0.223000000    -5.932000000
C    -0.036000000     2.580000000    -4.415000000
H    -0.778000000     3.374000000    -4.422000000
C     1.275000000     2.771000000    -3.921000000
C     1.658000000     4.141000000    -3.346000000
H     1.209000000     4.864000000    -4.030000000
H     2.706000000     4.434000000    -3.443000000
C     1.309000000     4.267000000    -1.889000000
C     0.029000000     4.626000000    -1.464000000
H    -0.746000000     4.734000000    -2.218000000
C     2.259000000     3.913000000    -0.881000000
C     1.988000000     4.206000000     0.458000000
H     2.751000000     3.946000000     1.187000000
C     0.692000000     4.596000000     0.866000000
O     0.395000000     4.686000000     2.215000000
C    -0.368000000     3.577000000     2.742000000
C     0.274000000     3.079000000     4.075000000
C    -0.488000000     2.355000000     5.036000000
H    -1.543000000     2.296000000     4.780000000
C     1.636000000     3.126000000     4.286000000
H     2.169000000     3.762000000     3.584000000
O    -1.746000000     3.918000000     2.905000000
H    -0.316000000     2.697000000     2.085000000
C    -0.268000000     4.914000000    -0.126000000
C    -1.654000000     5.401000000     0.376000000
H    -2.113000000     6.030000000    -0.390000000
H    -1.535000000     6.028000000     1.262000000
C    -2.573000000     4.177000000     0.595000000
C    -3.467000000     3.786000000    -0.403000000
H    -3.402000000     4.279000000    -1.369000000
C    -2.536000000     3.589000000     1.866000000
C    -3.394000000     2.492000000     2.109000000
H    -3.327000000     1.973000000     3.062000000
C    -4.235000000     2.048000000     1.061000000
O    -4.726000000     0.790000000     1.285000000
C    -4.001000000    -0.283000000     0.643000000
C    -3.909000000    -1.552000000     1.554000000
C    -4.004000000    -1.383000000     2.880000000
H    -4.329000000    -0.450000000     3.334000000
C    -3.423000000    -2.744000000     1.055000000
H    -3.409000000    -2.860000000    -0.026000000
O    -4.660000000    -0.733000000    -0.540000000
H    -3.014000000     0.155000000     0.435000000
C    -4.234000000     2.639000000    -0.235000000
C    -5.037000000     2.030000000    -1.316000000
H    -5.399000000     2.886000000    -1.889000000
H    -5.927000000     1.525000000    -0.937000000
C    -4.253000000     1.053000000    -2.106000000
C    -4.205000000    -0.285000000    -1.747000000
C    -3.439000000    -1.220000000    -2.514000000
H    -3.403000000    -2.267000000    -2.224000000
C    -2.799000000    -0.812000000    -3.662000000
O    -2.132000000    -1.801000000    -4.364000000
C    -0.699000000    -1.825000000    -4.041000000
H    -0.587000000    -1.378000000    -3.042000000
C    -0.192000000    -3.267000000    -3.866000000
C     1.152000000    -3.668000000    -4.055000000
H     1.862000000    -2.900000000    -4.351000000
C    -1.054000000    -4.234000000    -3.383000000
H    -2.092000000    -3.985000000    -3.177000000
C    -0.713000000    -5.601000000    -3.378000000
O    -1.710000000    -6.464000000    -3.018000000
C     0.635000000    -5.954000000    -3.526000000
H     0.949000000    -6.994000000    -3.490000000
C     1.586000000    -4.966000000    -3.835000000
O     2.960000000    -5.294000000    -4.157000000
C     3.967000000    -4.303000000    -4.201000000
C     4.465000000    -3.806000000    -3.020000000
H     4.133000000    -4.370000000    -2.152000000
C     4.502000000    -3.734000000    -5.375000000
H     4.155000000    -3.975000000    -6.376000000
C     5.423000000    -2.652000000    -5.323000000
H     5.644000000    -2.131000000    -6.251000000
C     5.931000000    -2.209000000    -4.157000000
H     6.566000000    -1.327000000    -4.192000000
C     5.485000000    -2.828000000    -2.979000000
O     5.964000000    -2.355000000    -1.714000000
C     5.425000000    -1.297000000    -1.070000000
C     5.725000000    -1.127000000     0.294000000
H     6.301000000    -1.844000000     0.873000000
C     5.102000000    -0.090000000     1.044000000
O     5.491000000     0.033000000     2.300000000
C     5.496000000     1.194000000     3.057000000
C     4.463000000     1.443000000     3.980000000
H     3.576000000     0.820000000     3.905000000
C     6.691000000     1.928000000     3.150000000
H     7.539000000     1.700000000     2.509000000
C     6.761000000     3.030000000     3.994000000
H     7.573000000     3.751000000     3.945000000
C     5.648000000     3.368000000     4.840000000
H     5.616000000     4.264000000     5.454000000
C     4.519000000     2.517000000     4.811000000
O     3.539000000     2.752000000     5.708000000
C     2.177000000     2.605000000     5.461000000
C     1.377000000     1.954000000     6.327000000
H     1.891000000     1.524000000     7.183000000
C     0.128000000     1.646000000     6.097000000
O    -0.615000000     0.982000000     7.015000000
C    -1.882000000     0.493000000     6.680000000
C    -2.150000000    -0.782000000     6.147000000
H    -1.411000000    -1.521000000     5.849000000
C    -2.933000000     1.328000000     7.042000000
H    -2.662000000     2.228000000     7.589000000
C    -4.170000000     1.122000000     6.594000000
H    -4.927000000     1.889000000     6.731000000
C    -4.464000000    -0.114000000     5.883000000
H    -5.478000000    -0.362000000     5.580000000
C    -3.412000000    -1.073000000     5.776000000
O    -3.676000000    -2.249000000     5.101000000
C    -3.629000000    -2.389000000     3.742000000
C    -3.120000000    -3.572000000     3.248000000
H    -2.857000000    -4.348000000     3.963000000
C    -3.030000000    -3.816000000     1.905000000
O    -2.481000000    -4.890000000     1.471000000
C    -2.915000000    -5.664000000     0.381000000
C    -4.087000000    -6.377000000     0.405000000
H    -4.749000000    -6.337000000     1.266000000
C    -4.522000000    -7.137000000    -0.629000000
H    -5.426000000    -7.735000000    -0.543000000
C    -3.720000000    -7.213000000    -1.779000000
H    -4.107000000    -7.787000000    -2.618000000
C    -2.485000000    -6.450000000    -1.836000000
C    -2.105000000    -5.654000000    -0.756000000
H    -1.108000000    -5.227000000    -0.829000000
C     1.803000000    -1.899000000     0.342000000
H     2.407000000    -2.540000000    -0.296000000
C     1.185000000    -0.827000000    -0.250000000
H     1.297000000    -0.627000000    -1.313000000
C     0.336000000     0.021000000     0.424000000
C    -0.440000000     1.064000000    -0.308000000
H     0.135000000     1.771000000    -0.911000000
H    -1.076000000     0.484000000    -0.979000000
H    -1.135000000     1.521000000     0.398000000
C     0.126000000    -0.247000000     1.802000000
H    -0.402000000     0.515000000     2.370000000
C     0.777000000    -1.282000000     2.424000000
H     0.668000000    -1.445000000     3.494000000
C     1.642000000    -2.187000000     1.762000000
C     2.331000000    -3.325000000     2.445000000
O     1.892000000    -3.653000000     3.519000000
O     3.176000000    -3.932000000     1.784000000
O     2.143000000    -5.207000000     7.057000000
H     1.858000000    -4.398000000     7.484000000
H     2.838000000    -4.930000000     6.461000000
O     1.582000000    -2.777000000     8.088000000
H     1.916000000    -2.426000000     8.914000000
H     0.654000000    -2.545000000     8.087000000
O     2.534000000    -9.157000000     1.208000000
H     1.711000000    -9.570000000     0.944000000
H     2.298000000    -8.610000000     1.957000000
O     3.846000000    -4.278000000     5.141000000
H     3.127000000    -4.153000000     4.522000000
H     4.600000000    -3.867000000     4.719000000
O    -1.158000000    -8.510000000     3.928000000
H    -0.628000000    -7.820000000     3.529000000
H    -1.993000000    -8.470000000     3.462000000
O     5.800000000    -3.814000000     2.517000000
H     4.871000000    -3.848000000     2.289000000
H     5.846000000    -3.196000000     3.247000000
O     7.309000000    -4.774000000    -1.030000000
H     7.156000000    -3.830000000    -0.999000000
H     6.563000000    -5.153000000    -0.565000000
O    -0.101000000    -6.949000000     1.715000000
H     0.538000000    -6.787000000     1.021000000
H    -0.540000000    -6.107000000     1.838000000
O    -0.990000000    -3.333000000     7.655000000
H    -1.773000000    -2.801000000     7.798000000
H    -1.146000000    -3.769000000     6.818000000
O     3.211000000    -1.327000000     5.917000000
H     2.497000000    -1.105000000     5.320000000
H     2.932000000    -2.144000000     6.331000000
O     6.938000000    -4.225000000     6.792000000
H     6.398000000    -3.545000000     6.389000000
H     6.320000000    -4.755000000     7.294000000
O     4.061000000    -6.490000000     2.515000000
H     3.465000000    -6.819000000     3.187000000
H     3.766000000    -5.595000000     2.349000000
O     1.868000000    -7.779000000     3.763000000
H     2.246000000    -7.727000000     4.640000000
H     1.090000000    -8.326000000     3.870000000
O    -0.139000000    -4.957000000     4.847000000
H     0.340000000    -5.052000000     5.671000000
H     0.381000000    -4.336000000     4.338000000
O     8.414000000    -3.873000000     2.000000000
H     8.516000000    -3.548000000     2.894000000
H     7.468000000    -3.935000000     1.874000000
O     1.692000000    -5.797000000     0.151000000
H     2.121000000    -5.139000000     0.699000000
H     2.317000000    -5.964000000    -0.555000000
O     5.581000000    -2.175000000     4.908000000
H     6.301000000    -1.646000000     5.252000000
H     4.793000000    -1.676000000     5.122000000
O     5.581000000    -8.284000000     1.034000000
H     4.770000000    -8.738000000     0.805000000
H     5.295000000    -7.527000000     1.546000000
O     7.123000000    -7.457000000     3.534000000
H     6.281000000    -7.142000000     3.860000000
H     7.091000000    -7.295000000     2.591000000
