218
-1462.00132
C     4.775000000     3.148000000     1.312000000
H     4.247000000     3.950000000     1.821000000
C     4.322000000     2.721000000     0.061000000
C     4.983000000     1.639000000    -0.502000000
H     4.559000000     1.157000000    -1.379000000
C     3.037000000     3.231000000    -0.476000000
O     2.568000000     4.506000000     0.062000000
H     2.217000000     2.523000000    -0.290000000
O     3.061000000     3.369000000    -1.893000000
C     2.020000000     3.070000000    -2.732000000
C     2.036000000     1.803000000    -3.331000000
H     2.918000000     1.177000000    -3.219000000
C     0.987000000     1.337000000    -4.077000000
O     1.068000000     0.038000000    -4.550000000
C    -0.134000000     2.148000000    -4.272000000
C    -1.309000000     1.659000000    -5.138000000
H    -1.849000000     2.569000000    -5.407000000
C    -2.243000000     0.742000000    -4.342000000
C    -3.340000000     1.245000000    -3.594000000
H    -3.491000000     2.319000000    -3.534000000
H    -1.114000000     1.208000000    -6.113000000
C    -0.224000000     3.385000000    -3.633000000
H    -1.102000000     4.025000000    -3.640000000
C     0.856000000     3.887000000    -2.879000000
C     0.824000000     5.197000000    -2.099000000
H     0.131000000     5.911000000    -2.549000000
H     1.761000000     5.758000000    -2.091000000
C     0.344000000     4.953000000    -0.668000000
C    -1.089000000     4.979000000    -0.379000000
H    -1.834000000     5.175000000    -1.146000000
C     1.229000000     4.632000000     0.338000000
C     0.795000000     4.138000000     1.568000000
H     1.567000000     3.941000000     2.308000000
C    -0.549000000     4.183000000     1.885000000
O    -0.930000000     3.708000000     3.110000000
C    -1.430000000     2.355000000     3.133000000
C    -0.718000000     1.648000000     4.300000000
C    -1.381000000     0.518000000     4.807000000
H    -2.404000000     0.317000000     4.498000000
C     0.636000000     1.976000000     4.738000000
H     1.089000000     2.879000000     4.338000000
O    -2.890000000     2.315000000     3.231000000
H    -1.071000000     1.900000000     2.198000000
C    -1.496000000     4.544000000     0.912000000
C    -2.959000000     4.503000000     1.218000000
H    -3.381000000     5.118000000     0.420000000
H    -3.208000000     4.887000000     2.210000000
C    -3.560000000     3.012000000     1.012000000
C    -4.170000000     2.725000000    -0.225000000
H    -4.158000000     3.493000000    -0.995000000
C    -3.541000000     2.041000000     2.055000000
C    -4.009000000     0.727000000     1.804000000
H    -3.974000000    -0.047000000     2.566000000
C    -4.505000000     0.426000000     0.525000000
O    -4.864000000    -0.873000000     0.198000000
C    -3.911000000    -1.753000000    -0.481000000
C    -3.738000000    -3.136000000     0.229000000
C    -4.008000000    -3.322000000     1.594000000
H    -4.513000000    -2.558000000     2.179000000
C    -3.260000000    -4.251000000    -0.489000000
H    -3.081000000    -4.168000000    -1.557000000
O    -4.302000000    -1.953000000    -1.880000000
H    -2.950000000    -1.218000000    -0.445000000
C    -4.594000000     1.411000000    -0.443000000
C    -5.135000000     0.997000000    -1.835000000
H    -5.460000000     1.912000000    -2.336000000
H    -5.998000000     0.334000000    -1.756000000
C    -4.081000000     0.357000000    -2.757000000
C    -3.827000000    -1.016000000    -2.803000000
C    -2.728000000    -1.478000000    -3.561000000
H    -2.412000000    -2.513000000    -3.467000000
C    -1.967000000    -0.566000000    -4.261000000
O    -0.851000000    -1.151000000    -4.789000000
C     0.310000000    -0.982000000    -3.943000000
H    -0.042000000    -0.607000000    -2.971000000
C     1.149000000    -2.243000000    -3.841000000
C     2.402000000    -2.189000000    -3.222000000
H     2.789000000    -1.209000000    -2.954000000
C     0.576000000    -3.484000000    -4.066000000
H    -0.429000000    -3.497000000    -4.481000000
C     1.278000000    -4.660000000    -3.866000000
O     0.633000000    -5.853000000    -4.207000000
C     2.623000000    -4.531000000    -3.554000000
H     3.268000000    -5.392000000    -3.396000000
C     3.161000000    -3.340000000    -3.163000000
O     4.458000000    -3.360000000    -2.701000000
C     5.146000000    -2.204000000    -2.744000000
C     5.795000000    -1.712000000    -1.624000000
H     5.867000000    -2.294000000    -0.709000000
C     5.326000000    -1.637000000    -4.016000000
H     4.946000000    -2.223000000    -4.850000000
C     6.027000000    -0.417000000    -4.110000000
H     6.100000000     0.147000000    -5.037000000
C     6.474000000     0.187000000    -2.915000000
H     6.943000000     1.168000000    -2.938000000
C     6.438000000    -0.535000000    -1.729000000
O     6.839000000     0.057000000    -0.565000000
C     6.175000000     1.151000000    -0.068000000
C     6.619000000     1.618000000     1.163000000
H     7.476000000     1.227000000     1.705000000
C     5.925000000     2.615000000     1.873000000
O     6.180000000     2.969000000     3.182000000
C     5.153000000     3.140000000     4.156000000
C     4.311000000     2.058000000     4.462000000
H     4.431000000     1.100000000     3.963000000
C     5.113000000     4.387000000     4.820000000
H     5.755000000     5.214000000     4.527000000
C     4.154000000     4.526000000     5.792000000
H     4.191000000     5.421000000     6.407000000
C     3.339000000     3.489000000     6.164000000
H     2.658000000     3.599000000     7.005000000
C     3.401000000     2.266000000     5.491000000
O     2.676000000     1.184000000     5.853000000
C     1.342000000     1.031000000     5.509000000
C     0.686000000    -0.126000000     5.963000000
H     1.209000000    -0.915000000     6.497000000
C    -0.648000000    -0.386000000     5.704000000
O    -1.276000000    -1.571000000     6.173000000
C    -2.489000000    -1.961000000     5.647000000
C    -2.511000000    -3.045000000     4.708000000
H    -1.753000000    -3.364000000     3.997000000
C    -3.697000000    -1.652000000     6.330000000
H    -3.687000000    -0.893000000     7.108000000
C    -4.877000000    -2.340000000     6.141000000
H    -5.796000000    -2.224000000     6.709000000
C    -4.921000000    -3.399000000     5.207000000
H    -5.838000000    -3.979000000     5.137000000
C    -3.728000000    -3.758000000     4.534000000
O    -3.922000000    -4.677000000     3.553000000
C    -3.695000000    -4.479000000     2.213000000
C    -3.196000000    -5.562000000     1.515000000
H    -2.831000000    -6.417000000     2.078000000
C    -3.028000000    -5.486000000     0.112000000
O    -2.456000000    -6.538000000    -0.689000000
C    -2.158000000    -6.527000000    -2.062000000
C    -3.154000000    -6.514000000    -2.965000000
H    -4.170000000    -6.656000000    -2.607000000
C    -2.938000000    -6.325000000    -4.316000000
H    -3.768000000    -6.464000000    -5.003000000
C    -1.663000000    -6.104000000    -4.761000000
H    -1.412000000    -6.095000000    -5.818000000
C    -0.646000000    -6.031000000    -3.847000000
C    -0.854000000    -6.215000000    -2.490000000
H    -0.090000000    -6.236000000    -1.717000000
C     2.039000000    -0.686000000     0.795000000
H     3.105000000    -0.829000000     0.640000000
C     1.228000000     0.056000000    -0.038000000
H     1.727000000     0.526000000    -0.881000000
C    -0.130000000     0.226000000     0.258000000
C    -0.946000000     1.226000000    -0.596000000
H    -1.513000000     1.937000000     0.009000000
H    -0.226000000     1.821000000    -1.163000000
H    -1.606000000     0.629000000    -1.228000000
C    -0.708000000    -0.438000000     1.349000000
H    -1.740000000    -0.449000000     1.691000000
C     0.113000000    -1.230000000     2.140000000
H    -0.236000000    -1.620000000     3.093000000
C     1.500000000    -1.379000000     1.860000000
C     2.430000000    -2.177000000     2.742000000
O     2.065000000    -2.852000000     3.673000000
O     3.571000000    -2.290000000     2.331000000
O    -0.278000000    -5.014000000     1.246000000
H    -0.148000000    -4.081000000     1.078000000
H    -1.032000000    -5.252000000     0.707000000
O     3.458000000    -3.791000000     0.188000000
H     3.496000000    -3.339000000     1.031000000
H     3.544000000    -3.093000000    -0.461000000
O     0.964000000    -7.338000000     1.702000000
H     1.583000000    -7.611000000     1.024000000
H     0.663000000    -6.475000000     1.417000000
O     3.077000000    -1.072000000     8.522000000
H     3.078000000    -0.125000000     8.657000000
H     3.510000000    -1.195000000     7.677000000
O     2.872000000    -3.996000000     8.695000000
H     2.584000000    -3.162000000     8.326000000
H     3.005000000    -4.562000000     7.934000000
O     6.033000000    -1.965000000     6.406000000
H     6.718000000    -1.688000000     5.798000000
H     5.225000000    -1.912000000     5.896000000
O     3.102000000    -5.314000000     3.666000000
H     2.343000000    -5.874000000     3.502000000
H     2.748000000    -4.425000000     3.665000000
O     6.394000000    -4.985000000     6.379000000
H     7.020000000    -5.034000000     5.657000000
H     5.772000000    -4.309000000     6.111000000
O    -0.480000000    -6.319000000     4.003000000
H    -1.126000000    -6.969000000     4.282000000
H    -0.422000000    -6.431000000     3.054000000
O    -1.819000000    -3.960000000     8.007000000
H    -1.416000000    -3.331000000     8.607000000
H    -1.579000000    -3.646000000     7.135000000
O     9.288000000    -2.533000000     2.342000000
H     9.503000000    -1.757000000     1.824000000
H     8.479000000    -2.864000000     1.953000000
O     6.885000000    -3.496000000     1.429000000
H     7.397000000    -4.110000000     0.902000000
H     6.043000000    -3.935000000     1.556000000
O     0.303000000    -3.989000000     5.477000000
H     0.076000000    -4.804000000     5.029000000
H     0.819000000    -3.500000000     4.836000000
O     7.791000000    -1.342000000     4.570000000
H     7.089000000    -1.106000000     3.964000000
H     8.541000000    -1.533000000     4.006000000
O     2.933000000    -5.826000000     6.586000000
H     3.152000000    -5.732000000     5.659000000
H     2.273000000    -6.519000000     6.608000000
O     5.810000000    -1.035000000     2.686000000
H     6.342000000    -1.598000000     2.123000000
H     4.912000000    -1.329000000     2.539000000
O     0.674000000    -7.385000000     6.229000000
H     0.181000000    -7.092000000     5.463000000
H     0.172000000    -7.060000000     6.976000000
O     3.014000000    -2.669000000     6.168000000
H     3.040000000    -2.608000000     5.213000000
H     2.285000000    -3.262000000     6.351000000
O     5.008000000    -5.378000000     1.627000000
H     4.561000000    -5.426000000     2.472000000
H     4.396000000    -4.912000000     1.058000000
