218
-1482.24064
C     4.137000000     3.016000000    -0.352000000
H     3.524000000     3.896000000    -0.169000000
C     3.879000000     2.037000000    -1.338000000
C     4.587000000     0.811000000    -1.309000000
H     4.332000000     0.020000000    -2.009000000
C     2.682000000     2.197000000    -2.219000000
O     2.362000000     3.517000000    -2.393000000
H     1.899000000     1.611000000    -1.717000000
O     2.926000000     1.600000000    -3.510000000
C     1.885000000     0.833000000    -4.099000000
C     1.989000000    -0.516000000    -3.916000000
H     2.923000000    -0.957000000    -3.578000000
C     0.912000000    -1.367000000    -4.225000000
O     1.043000000    -2.718000000    -3.884000000
C    -0.228000000    -0.804000000    -4.833000000
C    -1.426000000    -1.660000000    -5.169000000
H    -2.029000000    -1.216000000    -5.964000000
C    -2.270000000    -1.897000000    -3.972000000
C    -3.234000000    -0.952000000    -3.640000000
H    -3.412000000    -0.048000000    -4.217000000
H    -1.100000000    -2.589000000    -5.641000000
C    -0.312000000     0.618000000    -5.069000000
H    -1.226000000     1.068000000    -5.447000000
C     0.726000000     1.413000000    -4.595000000
C     0.560000000     2.911000000    -4.674000000
H    -0.124000000     3.218000000    -5.468000000
H     1.521000000     3.330000000    -4.979000000
C     0.106000000     3.505000000    -3.354000000
C    -1.275000000     3.741000000    -3.128000000
H    -1.938000000     3.547000000    -3.967000000
C     1.027000000     3.757000000    -2.329000000
C     0.589000000     4.373000000    -1.131000000
H     1.352000000     4.657000000    -0.410000000
C    -0.740000000     4.547000000    -0.933000000
O    -1.147000000     5.015000000     0.345000000
C    -1.654000000     4.004000000     1.126000000
C    -1.043000000     3.967000000     2.526000000
C    -1.490000000     3.098000000     3.537000000
H    -2.273000000     2.405000000     3.242000000
C     0.086000000     4.691000000     2.773000000
H     0.525000000     5.349000000     2.026000000
O    -3.107000000     3.981000000     1.180000000
H    -1.338000000     3.044000000     0.692000000
C    -1.695000000     4.321000000    -1.941000000
C    -3.142000000     4.484000000    -1.708000000
H    -3.597000000     4.543000000    -2.699000000
H    -3.392000000     5.419000000    -1.202000000
C    -3.795000000     3.299000000    -0.995000000
C    -4.249000000     2.256000000    -1.781000000
H    -4.204000000     2.463000000    -2.847000000
C    -3.644000000     3.028000000     0.351000000
C    -4.139000000     1.892000000     0.898000000
H    -4.012000000     1.760000000     1.969000000
C    -4.571000000     0.803000000     0.158000000
O    -4.889000000    -0.383000000     0.759000000
C    -4.045000000    -1.570000000     0.676000000
C    -3.806000000    -2.375000000     1.973000000
C    -4.001000000    -1.763000000     3.222000000
H    -4.337000000    -0.730000000     3.249000000
C    -3.376000000    -3.701000000     1.923000000
H    -3.349000000    -4.308000000     1.022000000
O    -4.465000000    -2.416000000    -0.447000000
H    -3.098000000    -1.103000000     0.366000000
C    -4.643000000     0.987000000    -1.246000000
C    -5.098000000    -0.114000000    -2.222000000
H    -5.276000000     0.383000000    -3.178000000
H    -6.052000000    -0.523000000    -1.884000000
C    -4.075000000    -1.201000000    -2.551000000
C    -3.860000000    -2.191000000    -1.664000000
C    -2.804000000    -3.023000000    -1.886000000
H    -2.571000000    -3.786000000    -1.147000000
C    -2.009000000    -2.916000000    -3.033000000
O    -0.923000000    -3.788000000    -3.173000000
C     0.351000000    -3.262000000    -2.753000000
H     0.209000000    -2.413000000    -2.068000000
C     1.353000000    -4.261000000    -1.996000000
C     2.714000000    -4.273000000    -2.320000000
H     3.072000000    -3.726000000    -3.189000000
C     0.856000000    -5.056000000    -0.941000000
H    -0.207000000    -5.178000000    -0.748000000
C     1.790000000    -5.809000000    -0.195000000
O     1.320000000    -6.585000000     0.841000000
C     3.100000000    -5.789000000    -0.516000000
H     3.786000000    -6.316000000     0.143000000
C     3.575000000    -5.021000000    -1.531000000
O     4.933000000    -4.860000000    -1.604000000
C     5.552000000    -3.627000000    -1.952000000
C     5.574000000    -2.567000000    -1.072000000
H     5.030000000    -2.558000000    -0.131000000
C     6.473000000    -3.605000000    -3.006000000
H     6.405000000    -4.434000000    -3.705000000
C     7.272000000    -2.475000000    -3.266000000
H     7.980000000    -2.427000000    -4.089000000
C     7.263000000    -1.416000000    -2.363000000
H     7.967000000    -0.623000000    -2.602000000
C     6.423000000    -1.479000000    -1.254000000
O     6.506000000    -0.359000000    -0.413000000
C     5.674000000     0.706000000    -0.448000000
C     6.007000000     1.723000000     0.452000000
H     6.893000000     1.597000000     1.069000000
C     5.197000000     2.892000000     0.563000000
O     5.512000000     3.828000000     1.572000000
C     4.790000000     4.953000000     2.007000000
C     3.680000000     4.674000000     2.833000000
H     3.380000000     3.682000000     3.163000000
C     5.177000000     6.281000000     1.737000000
H     6.033000000     6.507000000     1.106000000
C     4.362000000     7.308000000     2.139000000
H     4.673000000     8.336000000     1.973000000
C     3.195000000     7.023000000     2.869000000
H     2.439000000     7.776000000     3.079000000
C     2.890000000     5.759000000     3.277000000
O     1.827000000     5.527000000     4.179000000
C     0.733000000     4.644000000     3.984000000
C     0.329000000     3.845000000     5.030000000
H     0.846000000     3.782000000     5.984000000
C    -0.840000000     3.088000000     4.785000000
O    -1.145000000     2.085000000     5.754000000
C    -2.349000000     1.404000000     5.933000000
C    -2.448000000     0.011000000     5.806000000
H    -1.550000000    -0.577000000     5.635000000
C    -3.547000000     2.178000000     6.167000000
H    -3.486000000     3.257000000     6.050000000
C    -4.805000000     1.547000000     6.223000000
H    -5.702000000     2.148000000     6.344000000
C    -4.884000000     0.158000000     6.141000000
H    -5.838000000    -0.345000000     6.006000000
C    -3.744000000    -0.575000000     5.878000000
O    -3.829000000    -1.918000000     5.650000000
C    -3.703000000    -2.545000000     4.374000000
C    -3.237000000    -3.878000000     4.364000000
H    -3.303000000    -4.325000000     5.352000000
C    -3.102000000    -4.499000000     3.111000000
O    -2.875000000    -5.858000000     3.101000000
C    -2.083000000    -6.446000000     2.118000000
C    -2.600000000    -7.688000000     1.603000000
H    -3.574000000    -8.006000000     1.967000000
C    -1.844000000    -8.437000000     0.759000000
H    -2.182000000    -9.380000000     0.336000000
C    -0.484000000    -8.051000000     0.520000000
H     0.214000000    -8.722000000     0.027000000
C    -0.011000000    -6.917000000     1.107000000
C    -0.767000000    -6.065000000     1.888000000
H    -0.326000000    -5.171000000     2.323000000
C     0.743000000    -2.083000000     1.582000000
H     0.551000000    -3.144000000     1.715000000
C    -0.127000000    -1.494000000     0.618000000
H    -0.880000000    -2.091000000     0.108000000
C     0.068000000    -0.177000000     0.186000000
C    -0.970000000     0.421000000    -0.754000000
H    -1.339000000    -0.325000000    -1.461000000
H    -1.800000000     0.986000000    -0.323000000
H    -0.531000000     1.069000000    -1.515000000
C     1.065000000     0.591000000     0.801000000
H     1.161000000     1.647000000     0.561000000
C     1.915000000     0.047000000     1.779000000
H     2.756000000     0.615000000     2.169000000
C     1.788000000    -1.286000000     2.118000000
C     2.807000000    -1.883000000     3.034000000
O     3.492000000    -1.216000000     3.818000000
O     2.814000000    -3.084000000     3.175000000
O     1.600000000    -0.697000000     5.812000000
H     1.127000000     0.053000000     5.450000000
H     2.437000000    -0.700000000     5.348000000
O     3.082000000    -3.479000000     9.239000000
H     3.278000000    -3.924000000     8.414000000
H     2.244000000    -3.043000000     9.082000000
O     3.680000000    -3.707000000     6.324000000
H     3.113000000    -3.308000000     5.664000000
H     4.239000000    -4.307000000     5.829000000
O     6.222000000     3.069000000     4.624000000
H     5.691000000     3.677000000     4.110000000
H     5.856000000     2.206000000     4.429000000
O     1.003000000    -1.659000000     8.260000000
H     1.452000000    -1.333000000     7.479000000
H     0.085000000    -1.725000000     7.999000000
O     4.765000000    -6.562000000     4.024000000
H     5.568000000    -6.948000000     4.375000000
H     4.070000000    -6.899000000     4.590000000
O    -0.784000000    -3.531000000     6.792000000
H    -0.329000000    -4.360000000     6.934000000
H    -1.135000000    -3.599000000     5.904000000
O     8.228000000    -3.393000000     1.626000000
H     7.495000000    -3.171000000     2.200000000
H     7.835000000    -3.912000000     0.924000000
O     0.634000000    -3.990000000     4.379000000
H     0.419000000    -3.287000000     4.991000000
H     1.414000000    -3.679000000     3.920000000
O     8.047000000    -0.229000000     6.720000000
H     8.153000000    -0.728000000     5.909000000
H     7.226000000    -0.550000000     7.093000000
O     6.057000000    -2.689000000     3.489000000
H     5.456000000    -1.963000000     3.654000000
H     5.515000000    -3.359000000     3.073000000
O     1.011000000    -6.828000000     4.882000000
H     0.848000000    -5.972000000     4.485000000
H     0.734000000    -6.725000000     5.793000000
O     5.589000000    -1.527000000     7.271000000
H     5.014000000    -2.267000000     7.079000000
H     5.801000000    -1.623000000     8.199000000
O     3.585000000     2.630000000     6.360000000
H     3.928000000     1.818000000     5.986000000
H     2.751000000     2.377000000     6.756000000
O     6.600000000    -5.177000000     0.461000000
H     5.729000000    -4.840000000     0.671000000
H     6.472000000    -5.691000000    -0.336000000
O     8.585000000    -1.848000000     4.484000000
H     9.043000000    -1.380000000     3.785000000
H     7.782000000    -2.167000000     4.072000000
O     0.390000000    -5.831000000     7.670000000
H     0.292000000    -6.321000000     8.487000000
H     1.330000000    -5.850000000     7.491000000
O     4.563000000    -4.595000000     2.165000000
H     3.786000000    -4.097000000     2.421000000
H     4.686000000    -5.228000000     2.872000000
O     5.005000000     0.600000000     5.131000000
H     4.544000000    -0.015000000     4.561000000
H     5.167000000     0.107000000     5.935000000
