218
-1452.91014
C     4.582000000     2.740000000     0.225000000
H     4.057000000     3.691000000     0.225000000
C     4.305000000     1.878000000    -0.825000000
C     4.933000000     0.681000000    -1.031000000
H     4.666000000    -0.056000000    -1.784000000
C     3.187000000     2.277000000    -1.830000000
O     2.929000000     3.675000000    -1.874000000
H     2.248000000     1.844000000    -1.456000000
O     3.459000000     1.688000000    -3.135000000
C     2.427000000     1.112000000    -3.845000000
C     2.423000000    -0.227000000    -3.857000000
H     3.279000000    -0.778000000    -3.478000000
C     1.258000000    -0.920000000    -4.247000000
O     1.196000000    -2.300000000    -4.065000000
C     0.154000000    -0.248000000    -4.709000000
C    -1.100000000    -1.006000000    -5.190000000
H    -1.593000000    -0.439000000    -5.982000000
C    -2.030000000    -1.418000000    -4.122000000
C    -3.149000000    -0.595000000    -3.872000000
H    -3.410000000     0.223000000    -4.539000000
H    -0.890000000    -1.932000000    -5.729000000
C     0.180000000     1.152000000    -4.685000000
H    -0.665000000     1.700000000    -5.094000000
C     1.354000000     1.828000000    -4.294000000
C     1.337000000     3.363000000    -4.301000000
H     0.750000000     3.728000000    -5.147000000
H     2.332000000     3.780000000    -4.472000000
C     0.758000000     3.877000000    -2.989000000
C    -0.649000000     4.125000000    -2.909000000
H    -1.188000000     3.884000000    -3.821000000
C     1.578000000     4.101000000    -1.883000000
C     1.088000000     4.580000000    -0.669000000
H     1.775000000     4.689000000     0.166000000
C    -0.283000000     4.816000000    -0.560000000
O    -0.731000000     4.921000000     0.729000000
C    -1.322000000     3.734000000     1.394000000
C    -0.929000000     3.754000000     2.897000000
C    -1.792000000     3.204000000     3.878000000
H    -2.810000000     2.949000000     3.596000000
C     0.398000000     4.153000000     3.148000000
H     1.018000000     4.460000000     2.309000000
O    -2.724000000     3.838000000     1.316000000
H    -0.993000000     2.821000000     0.876000000
C    -1.152000000     4.475000000    -1.599000000
C    -2.669000000     4.488000000    -1.454000000
H    -3.178000000     4.778000000    -2.376000000
H    -2.887000000     5.366000000    -0.842000000
C    -3.315000000     3.232000000    -0.959000000
C    -4.019000000     2.401000000    -1.814000000
H    -4.106000000     2.666000000    -2.865000000
C    -3.313000000     2.974000000     0.410000000
C    -3.945000000     1.861000000     0.906000000
H    -4.002000000     1.734000000     1.984000000
C    -4.482000000     0.915000000     0.004000000
O    -4.922000000    -0.279000000     0.588000000
C    -3.960000000    -1.379000000     0.305000000
C    -3.789000000    -2.176000000     1.567000000
C    -4.011000000    -1.649000000     2.854000000
H    -4.200000000    -0.585000000     2.969000000
C    -3.339000000    -3.525000000     1.445000000
H    -3.161000000    -4.003000000     0.485000000
O    -4.447000000    -2.244000000    -0.812000000
H    -2.952000000    -1.029000000     0.036000000
C    -4.521000000     1.193000000    -1.364000000
C    -5.155000000     0.220000000    -2.338000000
H    -5.521000000     0.799000000    -3.188000000
H    -6.030000000    -0.198000000    -1.836000000
C    -4.034000000    -0.806000000    -2.785000000
C    -3.869000000    -2.016000000    -2.082000000
C    -2.823000000    -2.876000000    -2.379000000
H    -2.669000000    -3.717000000    -1.707000000
C    -1.903000000    -2.626000000    -3.390000000
O    -0.826000000    -3.406000000    -3.468000000
C     0.456000000    -2.874000000    -2.933000000
H     0.255000000    -2.104000000    -2.172000000
C     1.213000000    -3.978000000    -2.218000000
C     2.617000000    -4.089000000    -2.341000000
H     3.137000000    -3.303000000    -2.883000000
C     0.548000000    -4.936000000    -1.488000000
H    -0.531000000    -4.952000000    -1.359000000
C     1.225000000    -5.945000000    -0.873000000
O     0.656000000    -6.937000000    -0.105000000
C     2.612000000    -5.973000000    -0.973000000
H     3.150000000    -6.720000000    -0.395000000
C     3.319000000    -5.061000000    -1.687000000
O     4.765000000    -5.007000000    -1.518000000
C     5.508000000    -3.903000000    -1.688000000
C     5.709000000    -2.925000000    -0.662000000
H     5.120000000    -2.858000000     0.249000000
C     6.209000000    -3.886000000    -2.908000000
H     6.125000000    -4.606000000    -3.719000000
C     6.952000000    -2.718000000    -3.208000000
H     7.540000000    -2.728000000    -4.122000000
C     7.120000000    -1.738000000    -2.246000000
H     7.671000000    -0.809000000    -2.372000000
C     6.439000000    -1.814000000    -1.043000000
O     6.696000000    -0.820000000    -0.185000000
C     5.895000000     0.284000000    -0.076000000
C     6.150000000     1.099000000     1.011000000
H     6.973000000     0.734000000     1.621000000
C     5.475000000     2.322000000     1.156000000
O     5.855000000     3.142000000     2.160000000
C     5.029000000     4.104000000     2.607000000
C     3.948000000     3.778000000     3.469000000
H     3.988000000     2.801000000     3.943000000
C     5.062000000     5.365000000     2.132000000
H     5.893000000     5.641000000     1.488000000
C     4.095000000     6.348000000     2.463000000
H     4.108000000     7.344000000     2.028000000
C     3.112000000     5.944000000     3.410000000
H     2.474000000     6.745000000     3.773000000
C     3.065000000     4.653000000     3.983000000
O     2.069000000     4.278000000     4.924000000
C     0.814000000     3.962000000     4.461000000
C    -0.048000000     3.391000000     5.456000000
H     0.410000000     3.311000000     6.438000000
C    -1.334000000     2.977000000     5.162000000
O    -2.096000000     2.457000000     6.231000000
C    -3.153000000     1.628000000     5.986000000
C    -2.918000000     0.253000000     5.825000000
H    -1.902000000    -0.117000000     5.705000000
C    -4.447000000     2.126000000     6.074000000
H    -4.732000000     3.173000000     6.137000000
C    -5.559000000     1.377000000     5.871000000
H    -6.498000000     1.920000000     5.790000000
C    -5.341000000     0.011000000     5.580000000
H    -6.215000000    -0.600000000     5.372000000
C    -4.073000000    -0.514000000     5.548000000
O    -3.854000000    -1.839000000     5.328000000
C    -3.789000000    -2.365000000     4.025000000
C    -3.441000000    -3.693000000     3.933000000
H    -3.477000000    -4.218000000     4.884000000
C    -3.213000000    -4.281000000     2.667000000
O    -3.044000000    -5.645000000     2.618000000
C    -2.514000000    -6.357000000     1.527000000
C    -3.390000000    -7.074000000     0.748000000
H    -4.463000000    -7.058000000     0.925000000
C    -2.950000000    -7.657000000    -0.439000000
H    -3.545000000    -8.195000000    -1.173000000
C    -1.588000000    -7.548000000    -0.689000000
H    -1.231000000    -8.148000000    -1.523000000
C    -0.683000000    -6.953000000     0.222000000
C    -1.164000000    -6.329000000     1.335000000
H    -0.512000000    -5.897000000     2.090000000
C     0.875000000    -1.498000000     1.678000000
H     0.698000000    -2.451000000     2.171000000
C     0.233000000    -1.026000000     0.511000000
H    -0.590000000    -1.581000000     0.069000000
C     0.536000000     0.244000000     0.049000000
C    -0.408000000     0.795000000    -1.031000000
H    -0.575000000     0.110000000    -1.865000000
H    -1.427000000     0.975000000    -0.680000000
H     0.107000000     1.617000000    -1.533000000
C     1.508000000     1.010000000     0.705000000
H     1.718000000     2.044000000     0.444000000
C     2.208000000     0.522000000     1.796000000
H     3.166000000     0.944000000     2.090000000
C     1.922000000    -0.785000000     2.214000000
C     2.651000000    -1.275000000     3.457000000
O     3.543000000    -0.716000000     4.043000000
O     2.148000000    -2.192000000     4.079000000
O     2.842000000     0.750000000     6.378000000
H     2.470000000    -0.117000000     6.543000000
H     3.206000000     0.691000000     5.495000000
O     1.995000000    -1.908000000     6.704000000
H     2.160000000    -1.969000000     5.763000000
H     1.729000000    -2.791000000     6.959000000
O     4.143000000    -3.116000000     8.702000000
H     3.661000000    -2.375000000     8.335000000
H     4.218000000    -3.735000000     7.976000000
O     3.336000000    -7.093000000     1.981000000
H     2.869000000    -6.456000000     2.523000000
H     4.231000000    -6.758000000     1.936000000
O     0.007000000    -0.039000000     8.046000000
H     0.713000000    -0.011000000     7.401000000
H    -0.338000000    -0.929000000     7.984000000
O     8.782000000    -3.747000000     1.368000000
H     8.651000000    -4.310000000     2.131000000
H     8.233000000    -2.982000000     1.538000000
O    -1.103000000    -2.649000000     7.416000000
H    -0.631000000    -3.429000000     7.709000000
H    -0.820000000    -2.524000000     6.510000000
O     7.800000000    -2.897000000     5.587000000
H     6.930000000    -2.782000000     5.204000000
H     7.936000000    -2.109000000     6.113000000
O     4.319000000     3.052000000     7.356000000
H     3.692000000     3.254000000     8.050000000
H     4.083000000     2.169000000     7.070000000
O    -0.345000000    -2.549000000     4.690000000
H     0.596000000    -2.541000000     4.516000000
H    -0.671000000    -3.312000000     4.212000000
O     5.109000000    -2.835000000     5.328000000
H     4.401000000    -3.418000000     5.601000000
H     4.670000000    -2.130000000     4.853000000
O     0.720000000    -5.784000000     4.381000000
H     1.664000000    -5.633000000     4.436000000
H     0.412000000    -5.707000000     5.284000000
O     5.555000000    -0.816000000     7.776000000
H     4.647000000    -0.576000000     7.957000000
H     5.634000000    -0.757000000     6.824000000
O     3.011000000    -4.634000000     6.538000000
H     3.311000000    -5.494000000     6.833000000
H     3.057000000    -4.680000000     5.583000000
O     3.062000000     0.278000000     9.601000000
H     2.708000000     0.055000000    10.462000000
H     2.290000000     0.451000000     9.062000000
O     5.490000000    -5.200000000     1.893000000
H     5.690000000    -4.979000000     0.983000000
H     6.295000000    -5.596000000     2.226000000
O     8.771000000    -0.609000000     4.271000000
H     9.008000000     0.318000000     4.299000000
H     9.604000000    -1.072000000     4.360000000
O     3.208000000    -4.613000000     3.783000000
H     2.874000000    -3.723000000     3.667000000
H     3.973000000    -4.657000000     3.209000000
O     6.421000000     0.550000000     5.411000000
H     5.690000000     0.208000000     4.896000000
H     7.185000000     0.072000000     5.089000000
