218
-1459.61990
C    -3.165000000    -2.663000000     2.511000000
H    -3.086000000    -3.340000000     1.665000000
C    -3.645000000    -1.363000000     2.377000000
C    -3.802000000    -0.572000000     3.536000000
H    -4.398000000     0.325000000     3.394000000
C    -3.800000000    -0.703000000     0.965000000
O    -4.384000000    -1.650000000     0.026000000
H    -2.806000000    -0.444000000     0.571000000
O    -4.714000000     0.466000000     0.997000000
C    -4.318000000     1.541000000     0.259000000
C    -3.698000000     2.554000000     0.965000000
H    -3.577000000     2.420000000     2.037000000
C    -3.089000000     3.527000000     0.295000000
O    -2.220000000     4.319000000     1.085000000
C    -3.186000000     3.649000000    -1.096000000
C    -2.327000000     4.720000000    -1.792000000
H    -2.648000000     4.970000000    -2.806000000
C    -0.902000000     4.221000000    -2.034000000
C    -0.628000000     3.530000000    -3.228000000
H    -1.408000000     3.321000000    -3.956000000
H    -2.365000000     5.638000000    -1.202000000
C    -3.857000000     2.679000000    -1.867000000
H    -3.994000000     2.787000000    -2.940000000
C    -4.407000000     1.587000000    -1.164000000
C    -5.194000000     0.486000000    -1.860000000
H    -5.650000000     0.875000000    -2.772000000
H    -6.091000000     0.184000000    -1.316000000
C    -4.283000000    -0.726000000    -2.198000000
C    -3.591000000    -0.812000000    -3.443000000
H    -3.864000000    -0.010000000    -4.124000000
C    -4.004000000    -1.783000000    -1.297000000
C    -3.269000000    -2.891000000    -1.640000000
H    -3.046000000    -3.618000000    -0.864000000
C    -2.609000000    -2.963000000    -2.894000000
O    -1.551000000    -3.846000000    -2.977000000
C    -0.284000000    -3.400000000    -2.633000000
C     0.495000000    -4.416000000    -1.767000000
C     1.892000000    -4.443000000    -1.820000000
H     2.338000000    -3.709000000    -2.487000000
C    -0.170000000    -5.241000000    -0.903000000
H    -1.253000000    -5.207000000    -0.818000000
O     0.362000000    -3.149000000    -3.844000000
H    -0.359000000    -2.466000000    -2.057000000
C    -2.773000000    -1.904000000    -3.790000000
C    -1.916000000    -1.832000000    -5.071000000
H    -2.522000000    -1.186000000    -5.710000000
H    -1.800000000    -2.836000000    -5.485000000
C    -0.656000000    -1.119000000    -4.736000000
C    -0.473000000     0.224000000    -5.025000000
H    -1.321000000     0.828000000    -5.336000000
C     0.462000000    -1.824000000    -4.171000000
C     1.689000000    -1.194000000    -4.023000000
H     2.536000000    -1.763000000    -3.648000000
C     1.828000000     0.160000000    -4.183000000
O     2.935000000     0.724000000    -3.798000000
C     3.078000000     1.410000000    -2.491000000
C     4.355000000     1.128000000    -1.772000000
C     4.905000000    -0.113000000    -2.000000000
H     4.496000000    -0.922000000    -2.600000000
C     4.833000000     1.965000000    -0.757000000
H     4.347000000     2.899000000    -0.484000000
O     2.907000000     2.826000000    -2.719000000
H     2.323000000     1.082000000    -1.761000000
C     0.736000000     0.914000000    -4.758000000
C     0.885000000     2.456000000    -4.886000000
H     0.128000000     2.696000000    -5.635000000
H     1.882000000     2.723000000    -5.242000000
C     0.679000000     3.186000000    -3.553000000
C     1.678000000     3.416000000    -2.612000000
C     1.353000000     4.018000000    -1.383000000
H     2.137000000     4.041000000    -0.630000000
C     0.103000000     4.540000000    -1.144000000
O    -0.197000000     4.965000000     0.145000000
C    -0.828000000     3.965000000     1.057000000
H    -0.748000000     2.908000000     0.762000000
C    -0.177000000     3.972000000     2.433000000
C    -0.964000000     3.834000000     3.630000000
H    -2.039000000     3.726000000     3.511000000
C     1.185000000     4.018000000     2.518000000
H     1.759000000     4.148000000     1.604000000
C     1.803000000     3.995000000     3.750000000
O     3.147000000     4.065000000     3.889000000
C     1.075000000     3.915000000     4.921000000
H     1.588000000     3.775000000     5.869000000
C    -0.327000000     3.804000000     4.874000000
O    -1.174000000     3.745000000     5.993000000
C    -2.389000000     3.102000000     6.142000000
C    -2.573000000     1.738000000     5.753000000
H    -1.660000000     1.248000000     5.425000000
C    -3.500000000     3.835000000     6.578000000
H    -3.386000000     4.910000000     6.693000000
C    -4.760000000     3.226000000     6.790000000
H    -5.608000000     3.812000000     7.136000000
C    -4.876000000     1.760000000     6.583000000
H    -5.781000000     1.215000000     6.838000000
C    -3.747000000     1.056000000     6.010000000
O    -3.855000000    -0.331000000     5.943000000
C    -3.569000000    -1.053000000     4.829000000
C    -3.025000000    -2.339000000     4.906000000
H    -2.801000000    -2.747000000     5.889000000
C    -2.989000000    -3.188000000     3.810000000
O    -2.392000000    -4.407000000     4.046000000
C    -2.394000000    -5.384000000     3.122000000
C    -1.204000000    -5.727000000     2.448000000
H    -0.219000000    -5.314000000     2.654000000
C    -3.546000000    -6.031000000     2.798000000
H    -4.450000000    -5.714000000     3.311000000
C    -3.595000000    -6.873000000     1.731000000
H    -4.450000000    -7.465000000     1.412000000
C    -2.413000000    -7.248000000     1.036000000
H    -2.450000000    -7.973000000     0.227000000
C    -1.200000000    -6.756000000     1.453000000
O    -0.099000000    -7.058000000     0.745000000
C     0.584000000    -6.164000000    -0.155000000
C     1.974000000    -6.245000000    -0.237000000
H     2.536000000    -6.937000000     0.385000000
C     2.651000000    -5.385000000    -1.134000000
O     4.010000000    -5.483000000    -1.297000000
C     4.755000000    -4.607000000    -2.095000000
C     5.395000000    -3.550000000    -1.473000000
H     5.300000000    -3.424000000    -0.397000000
C     4.776000000    -4.827000000    -3.443000000
H     4.191000000    -5.630000000    -3.884000000
C     5.591000000    -3.939000000    -4.217000000
H     5.477000000    -4.026000000    -5.295000000
C     6.203000000    -2.819000000    -3.661000000
H     6.676000000    -2.057000000    -4.276000000
C     6.192000000    -2.723000000    -2.260000000
O     6.797000000    -1.625000000    -1.648000000
C     6.148000000    -0.387000000    -1.364000000
C     6.650000000     0.462000000    -0.405000000
H     7.601000000     0.273000000     0.086000000
C     5.938000000     1.668000000    -0.082000000
O     6.525000000     2.523000000     0.828000000
C     5.829000000     3.617000000     1.475000000
C     6.040000000     4.921000000     1.081000000
H     6.673000000     5.106000000     0.217000000
C     5.293000000     5.953000000     1.634000000
H     5.298000000     6.920000000     1.139000000
C     4.382000000     5.707000000     2.674000000
H     3.735000000     6.505000000     3.029000000
C     4.069000000     4.386000000     2.976000000
C     4.804000000     3.341000000     2.375000000
H     4.411000000     2.357000000     2.616000000
C     1.978000000    -1.355000000     0.796000000
H     2.722000000    -2.109000000     0.553000000
C     1.180000000    -0.909000000    -0.229000000
H     1.288000000    -1.324000000    -1.228000000
C     0.183000000    -0.022000000     0.031000000
C    -0.717000000     0.377000000    -1.163000000
H    -0.055000000     0.776000000    -1.935000000
H    -1.363000000    -0.435000000    -1.504000000
H    -1.365000000     1.208000000    -0.877000000
C     0.006000000     0.482000000     1.330000000
H    -0.855000000     1.099000000     1.574000000
C     0.862000000     0.077000000     2.313000000
H     0.725000000     0.384000000     3.347000000
C     1.902000000    -0.857000000     2.123000000
C     2.879000000    -1.190000000     3.102000000
O     2.886000000    -0.575000000     4.155000000
O     3.636000000    -2.151000000     3.034000000
O     4.190000000    -5.610000000     7.084000000
H     5.131000000    -5.703000000     6.930000000
H     3.969000000    -4.760000000     6.704000000
O     3.935000000    -1.866000000     6.402000000
H     3.620000000    -1.053000000     6.007000000
H     3.856000000    -2.517000000     5.705000000
O     2.735000000     2.827000000     8.336000000
H     2.477000000     3.725000000     8.127000000
H     3.321000000     2.573000000     7.623000000
O     1.019000000    -4.021000000     5.306000000
H     0.996000000    -4.232000000     6.239000000
H     1.923000000    -4.196000000     5.043000000
O     7.159000000    -2.967000000     6.491000000
H     6.285000000    -2.639000000     6.279000000
H     7.022000000    -3.544000000     7.242000000
O     6.852000000     0.114000000     5.518000000
H     7.327000000    -0.708000000     5.643000000
H     6.298000000     0.192000000     6.294000000
O    -0.214000000    -2.074000000     7.908000000
H     0.530000000    -2.652000000     8.078000000
H    -0.099000000    -1.795000000     7.000000000
O     3.802000000    -4.122000000     4.795000000
H     4.423000000    -4.720000000     4.378000000
H     3.753000000    -3.375000000     4.199000000
O     0.498000000    -1.186000000     5.255000000
H     1.338000000    -0.753000000     5.103000000
H     0.541000000    -1.985000000     4.729000000
O     5.994000000    -6.272000000     1.053000000
H     5.458000000    -5.548000000     1.378000000
H     6.842000000    -5.874000000     0.857000000
O     6.194000000    -1.000000000     2.718000000
H     6.055000000    -0.316000000     3.373000000
H     5.479000000    -1.619000000     2.862000000
O     3.900000000    -4.471000000     1.634000000
H     3.866000000    -3.585000000     1.994000000
H     3.504000000    -4.392000000     0.766000000
O     5.383000000     3.383000000     6.607000000
H     4.711000000     2.839000000     6.196000000
H     6.210000000     3.025000000     6.284000000
O     2.212000000    -6.698000000     2.967000000
H     2.342000000    -6.966000000     3.877000000
H     2.913000000    -6.068000000     2.801000000
O     2.975000000    -1.172000000     8.833000000
H     3.229000000    -1.189000000     7.910000000
H     3.307000000    -1.997000000     9.188000000
O     3.753000000     1.707000000     5.149000000
H     3.405000000     0.869000000     4.846000000
H     3.276000000     2.363000000     4.641000000
O     8.188000000     1.120000000     3.221000000
H     7.723000000     0.812000000     3.999000000
H     7.562000000     1.004000000     2.506000000
O     8.697000000    -1.799000000     1.730000000
H     9.041000000    -2.239000000     2.507000000
H     7.861000000    -1.430000000     2.013000000
O     5.921000000    -0.289000000     8.173000000
H     5.191000000    -0.888000000     8.331000000
H     6.500000000    -0.414000000     8.925000000
