218
-1467.08754
C     4.412000000     2.586000000    -0.254000000
H     3.872000000     3.502000000    -0.030000000
C     4.030000000     1.861000000    -1.384000000
C     4.636000000     0.635000000    -1.603000000
H     4.273000000    -0.024000000    -2.388000000
C     2.833000000     2.313000000    -2.188000000
O     2.563000000     3.733000000    -2.103000000
H     1.967000000     1.768000000    -1.784000000
O     2.968000000     1.952000000    -3.620000000
C     1.877000000     1.342000000    -4.132000000
C     1.889000000    -0.039000000    -4.187000000
H     2.790000000    -0.609000000    -3.976000000
C     0.739000000    -0.742000000    -4.537000000
O     0.719000000    -2.073000000    -4.429000000
C    -0.402000000    -0.057000000    -4.887000000
C    -1.782000000    -0.684000000    -5.141000000
H    -2.414000000     0.007000000    -5.703000000
C    -2.484000000    -1.018000000    -3.865000000
C    -3.493000000    -0.224000000    -3.365000000
H    -3.851000000     0.627000000    -3.939000000
H    -1.608000000    -1.565000000    -5.762000000
C    -0.408000000     1.347000000    -4.800000000
H    -1.231000000     1.993000000    -5.095000000
C     0.715000000     2.034000000    -4.392000000
C     0.550000000     3.555000000    -4.183000000
H    -0.220000000     3.962000000    -4.840000000
H     1.465000000     4.105000000    -4.415000000
C     0.249000000     3.939000000    -2.770000000
C    -1.034000000     4.067000000    -2.328000000
H    -1.873000000     3.927000000    -3.005000000
C     1.292000000     4.191000000    -1.823000000
C     0.995000000     4.595000000    -0.521000000
H     1.788000000     4.657000000     0.221000000
C    -0.327000000     4.738000000    -0.146000000
O    -0.602000000     4.817000000     1.161000000
C    -1.169000000     3.714000000     1.891000000
C    -0.649000000     3.615000000     3.302000000
C    -1.442000000     3.474000000     4.428000000
H    -2.508000000     3.313000000     4.286000000
C     0.762000000     3.674000000     3.421000000
H     1.266000000     3.743000000     2.460000000
O    -2.631000000     3.655000000     2.003000000
H    -0.860000000     2.786000000     1.388000000
C    -1.341000000     4.460000000    -1.023000000
C    -2.784000000     4.592000000    -0.634000000
H    -3.345000000     5.004000000    -1.476000000
H    -2.968000000     5.352000000     0.129000000
C    -3.469000000     3.322000000    -0.242000000
C    -4.229000000     2.529000000    -1.072000000
H    -4.260000000     2.875000000    -2.103000000
C    -3.417000000     2.938000000     1.062000000
C    -3.942000000     1.760000000     1.522000000
H    -3.837000000     1.460000000     2.561000000
C    -4.580000000     0.959000000     0.664000000
O    -4.870000000    -0.315000000     1.144000000
C    -3.988000000    -1.385000000     0.794000000
C    -3.591000000    -2.264000000     1.988000000
C    -3.064000000    -1.667000000     3.095000000
H    -2.995000000    -0.592000000     3.239000000
C    -3.600000000    -3.653000000     1.926000000
H    -3.893000000    -4.156000000     1.008000000
O    -4.392000000    -2.144000000    -0.327000000
H    -3.107000000    -0.830000000     0.437000000
C    -4.730000000     1.287000000    -0.651000000
C    -5.230000000     0.276000000    -1.662000000
H    -5.824000000     0.784000000    -2.424000000
H    -6.052000000    -0.242000000    -1.163000000
C    -4.170000000    -0.585000000    -2.201000000
C    -3.811000000    -1.792000000    -1.541000000
C    -2.917000000    -2.659000000    -2.129000000
H    -2.689000000    -3.597000000    -1.630000000
C    -2.182000000    -2.269000000    -3.222000000
O    -1.181000000    -3.098000000    -3.654000000
C     0.067000000    -2.669000000    -3.292000000
H     0.011000000    -1.862000000    -2.547000000
C     0.876000000    -3.798000000    -2.675000000
C     2.293000000    -3.828000000    -2.866000000
H     2.821000000    -3.190000000    -3.571000000
C     0.238000000    -4.682000000    -1.783000000
H    -0.814000000    -4.583000000    -1.529000000
C     0.968000000    -5.756000000    -1.345000000
O     0.415000000    -6.725000000    -0.588000000
C     2.328000000    -5.916000000    -1.695000000
H     2.699000000    -6.871000000    -1.330000000
C     2.953000000    -4.982000000    -2.480000000
O     4.312000000    -5.132000000    -2.680000000
C     5.144000000    -4.087000000    -2.961000000
C     5.096000000    -3.019000000    -1.988000000
H     4.472000000    -3.105000000    -1.102000000
C     6.080000000    -4.063000000    -3.973000000
H     6.117000000    -4.793000000    -4.778000000
C     6.988000000    -2.943000000    -4.016000000
H     7.696000000    -2.921000000    -4.840000000
C     6.952000000    -1.942000000    -3.045000000
H     7.724000000    -1.177000000    -3.048000000
C     6.081000000    -1.990000000    -1.961000000
O     6.252000000    -1.097000000    -0.918000000
C     5.635000000     0.118000000    -0.816000000
C     6.120000000     0.950000000     0.233000000
H     6.870000000     0.581000000     0.928000000
C     5.446000000     2.142000000     0.569000000
O     5.941000000     2.975000000     1.534000000
C     5.159000000     3.947000000     2.138000000
C     4.446000000     3.542000000     3.277000000
H     4.504000000     2.549000000     3.717000000
C     5.094000000     5.248000000     1.586000000
H     5.634000000     5.448000000     0.664000000
C     4.081000000     6.066000000     2.096000000
H     4.060000000     7.027000000     1.589000000
C     3.326000000     5.677000000     3.168000000
H     2.587000000     6.355000000     3.587000000
C     3.527000000     4.420000000     3.812000000
O     2.657000000     4.050000000     4.835000000
C     1.323000000     3.800000000     4.676000000
C     0.542000000     3.448000000     5.821000000
H     0.972000000     3.451000000     6.820000000
C    -0.823000000     3.277000000     5.660000000
O    -1.637000000     2.866000000     6.712000000
C    -2.269000000     1.610000000     6.596000000
C    -1.705000000     0.547000000     5.912000000
H    -0.692000000     0.672000000     5.538000000
C    -3.596000000     1.528000000     6.939000000
H    -4.111000000     2.392000000     7.350000000
C    -4.353000000     0.321000000     6.821000000
H    -5.398000000     0.279000000     7.117000000
C    -3.678000000    -0.747000000     6.201000000
H    -4.274000000    -1.639000000     6.031000000
C    -2.432000000    -0.609000000     5.747000000
O    -1.816000000    -1.698000000     5.046000000
C    -2.524000000    -2.420000000     4.094000000
C    -2.323000000    -3.755000000     3.915000000
H    -1.694000000    -4.255000000     4.647000000
C    -3.007000000    -4.422000000     2.942000000
O    -2.831000000    -5.785000000     2.768000000
C    -2.491000000    -6.378000000     1.571000000
C    -3.503000000    -6.878000000     0.780000000
H    -4.532000000    -6.883000000     1.132000000
C    -3.226000000    -7.167000000    -0.607000000
H    -3.979000000    -7.414000000    -1.351000000
C    -1.908000000    -7.108000000    -1.049000000
H    -1.598000000    -7.428000000    -2.041000000
C    -0.865000000    -6.693000000    -0.176000000
C    -1.162000000    -6.344000000     1.186000000
H    -0.413000000    -6.007000000     1.898000000
C     1.043000000    -2.697000000     0.910000000
H     0.763000000    -3.717000000     1.161000000
C     0.185000000    -1.920000000     0.230000000
H    -0.769000000    -2.406000000     0.041000000
C     0.428000000    -0.609000000    -0.177000000
C    -0.565000000     0.225000000    -0.876000000
H    -0.129000000     1.222000000    -0.964000000
H    -0.687000000    -0.069000000    -1.921000000
H    -1.494000000     0.318000000    -0.309000000
C     1.609000000    -0.070000000     0.276000000
H     1.790000000     0.997000000     0.170000000
C     2.558000000    -0.809000000     0.981000000
H     3.510000000    -0.327000000     1.187000000
C     2.288000000    -2.188000000     1.312000000
C     3.312000000    -3.075000000     2.055000000
O     4.271000000    -2.552000000     2.599000000
O     3.232000000    -4.233000000     1.805000000
O     2.392000000     0.775000000     3.665000000
H     2.362000000     1.466000000     3.003000000
H     1.828000000     0.085000000     3.316000000
O     6.747000000    -2.860000000     1.254000000
H     5.861000000    -2.602000000     1.510000000
H     7.040000000    -2.161000000     0.669000000
O     8.911000000    -1.797000000     3.400000000
H     7.964000000    -1.663000000     3.431000000
H     9.077000000    -2.127000000     2.516000000
O     7.421000000    -5.648000000     0.712000000
H     6.790000000    -6.092000000     1.279000000
H     7.146000000    -4.731000000     0.721000000
O     6.140000000     0.530000000     6.003000000
H     7.074000000     0.319000000     5.991000000
H     5.819000000     0.243000000     5.148000000
O     2.453000000    -8.445000000     4.249000000
H     2.820000000    -9.192000000     3.777000000
H     2.316000000    -7.779000000     3.575000000
O     0.571000000    -3.000000000     5.865000000
H    -0.265000000    -2.534000000     5.863000000
H     0.812000000    -3.055000000     6.790000000
O     4.414000000    -3.724000000     5.097000000
H     4.336000000    -3.354000000     4.218000000
H     4.282000000    -2.980000000     5.683000000
O     4.361000000    -1.406000000     7.053000000
H     5.038000000    -0.776000000     6.807000000
H     3.575000000    -0.875000000     7.182000000
O     1.835000000     0.142000000     6.345000000
H     2.069000000     0.246000000     5.423000000
H     1.490000000     0.997000000     6.602000000
O     2.063000000    -6.360000000     2.669000000
H     2.374000000    -5.562000000     2.243000000
H     1.740000000    -6.067000000     3.520000000
O     4.422000000    -6.350000000     5.761000000
H     3.577000000    -6.657000000     5.432000000
H     4.385000000    -5.398000000     5.663000000
O     1.367000000    -5.584000000     5.112000000
H     1.036000000    -6.037000000     5.887000000
H     0.977000000    -4.711000000     5.161000000
O     4.491000000    -8.446000000     0.823000000
H     4.457000000    -9.077000000     1.543000000
H     4.762000000    -7.626000000     1.236000000
O     0.217000000    -0.664000000     2.919000000
H    -0.144000000    -1.433000000     3.359000000
H     0.350000000    -0.947000000     2.014000000
O     6.850000000    -4.592000000     3.560000000
H     6.764000000    -3.999000000     2.813000000
H     6.321000000    -4.188000000     4.249000000
O     0.991000000    -8.920000000     1.188000000
H     1.359000000    -8.556000000     0.383000000
H     1.010000000    -8.192000000     1.810000000
O     5.084000000    -6.086000000     2.134000000
H     5.494000000    -5.689000000     2.903000000
H     4.351000000    -5.506000000     1.927000000
O     5.205000000    -0.572000000     3.683000000
H     4.484000000     0.035000000     3.515000000
H     4.944000000    -1.382000000     3.245000000
