218
-1471.30970
C     4.112000000     2.451000000     0.112000000
H     3.407000000     3.222000000     0.411000000
C     4.016000000     1.866000000    -1.125000000
C     4.815000000     0.765000000    -1.449000000
H     4.660000000     0.210000000    -2.370000000
C     2.884000000     2.248000000    -2.049000000
O     2.594000000     3.648000000    -2.050000000
H     1.950000000     1.831000000    -1.644000000
O     3.076000000     1.869000000    -3.418000000
C     2.019000000     1.162000000    -4.003000000
C     2.084000000    -0.213000000    -4.089000000
H     2.939000000    -0.817000000    -3.797000000
C     0.919000000    -0.920000000    -4.466000000
O     1.065000000    -2.335000000    -4.387000000
C    -0.230000000    -0.300000000    -4.878000000
C    -1.451000000    -1.026000000    -5.327000000
H    -1.994000000    -0.417000000    -6.053000000
C    -2.413000000    -1.384000000    -4.221000000
C    -3.419000000    -0.465000000    -3.809000000
H    -3.574000000     0.455000000    -4.367000000
H    -1.215000000    -1.926000000    -5.898000000
C    -0.223000000     1.099000000    -4.905000000
H    -1.206000000     1.539000000    -5.055000000
C     0.863000000     1.839000000    -4.521000000
C     0.733000000     3.317000000    -4.339000000
H    -0.015000000     3.727000000    -5.021000000
H     1.610000000     3.886000000    -4.654000000
C     0.329000000     3.814000000    -2.970000000
C    -1.029000000     4.095000000    -2.694000000
H    -1.729000000     3.983000000    -3.518000000
C     1.258000000     3.956000000    -1.945000000
C     0.938000000     4.452000000    -0.690000000
H     1.704000000     4.683000000     0.046000000
C    -0.384000000     4.708000000    -0.428000000
O    -0.762000000     4.751000000     0.892000000
C    -1.371000000     3.664000000     1.607000000
C    -0.890000000     3.604000000     3.050000000
C    -1.797000000     3.258000000     4.095000000
H    -2.747000000     2.807000000     3.819000000
C     0.384000000     4.117000000     3.310000000
H     1.068000000     4.452000000     2.535000000
O    -2.827000000     3.813000000     1.501000000
H    -1.107000000     2.742000000     1.069000000
C    -1.378000000     4.631000000    -1.441000000
C    -2.877000000     4.649000000    -1.238000000
H    -3.276000000     5.061000000    -2.167000000
H    -3.179000000     5.434000000    -0.541000000
C    -3.346000000     3.342000000    -0.688000000
C    -3.963000000     2.440000000    -1.618000000
H    -3.971000000     2.609000000    -2.692000000
C    -3.377000000     2.976000000     0.602000000
C    -3.943000000     1.840000000     1.144000000
H    -3.880000000     1.580000000     2.198000000
C    -4.494000000     0.895000000     0.300000000
O    -4.694000000    -0.353000000     0.686000000
C    -3.692000000    -1.326000000     0.390000000
C    -3.382000000    -2.193000000     1.655000000
C    -3.464000000    -1.586000000     2.936000000
H    -3.762000000    -0.549000000     3.065000000
C    -2.862000000    -3.498000000     1.574000000
H    -2.800000000    -3.907000000     0.569000000
O    -4.223000000    -2.137000000    -0.638000000
H    -2.749000000    -0.825000000     0.127000000
C    -4.488000000     1.208000000    -1.119000000
C    -5.127000000     0.216000000    -2.133000000
H    -5.559000000     0.664000000    -3.030000000
H    -5.971000000    -0.242000000    -1.611000000
C    -4.051000000    -0.727000000    -2.618000000
C    -3.728000000    -1.910000000    -1.945000000
C    -2.787000000    -2.820000000    -2.370000000
H    -2.629000000    -3.692000000    -1.741000000
C    -2.061000000    -2.584000000    -3.498000000
O    -0.928000000    -3.402000000    -3.716000000
C     0.399000000    -2.991000000    -3.255000000
H     0.342000000    -2.133000000    -2.569000000
C     1.167000000    -4.082000000    -2.683000000
C     2.527000000    -3.942000000    -2.510000000
H     2.970000000    -3.048000000    -2.943000000
C     0.482000000    -5.179000000    -2.089000000
H    -0.602000000    -5.230000000    -2.137000000
C     1.243000000    -6.141000000    -1.368000000
O     0.665000000    -7.231000000    -0.850000000
C     2.636000000    -6.043000000    -1.271000000
H     3.232000000    -6.782000000    -0.742000000
C     3.270000000    -4.916000000    -1.848000000
O     4.603000000    -4.886000000    -1.860000000
C     5.404000000    -3.846000000    -2.213000000
C     5.655000000    -2.903000000    -1.264000000
H     5.378000000    -3.210000000    -0.259000000
C     5.754000000    -3.602000000    -3.544000000
H     5.572000000    -4.423000000    -4.232000000
C     6.338000000    -2.378000000    -3.943000000
H     6.678000000    -2.171000000    -4.955000000
C     6.717000000    -1.514000000    -2.929000000
H     7.271000000    -0.607000000    -3.158000000
C     6.364000000    -1.730000000    -1.601000000
O     6.577000000    -0.773000000    -0.697000000
C     5.856000000     0.413000000    -0.608000000
C     6.049000000     1.084000000     0.598000000
H     6.835000000     0.757000000     1.274000000
C     5.136000000     2.058000000     0.980000000
O     5.225000000     2.588000000     2.252000000
C     4.738000000     3.780000000     2.834000000
C     3.695000000     3.732000000     3.677000000
H     3.240000000     2.775000000     3.920000000
C     5.386000000     4.950000000     2.522000000
H     6.305000000     4.823000000     1.957000000
C     4.902000000     6.182000000     3.072000000
H     5.350000000     7.147000000     2.850000000
C     3.778000000     6.130000000     3.892000000
H     3.421000000     7.122000000     4.157000000
C     3.167000000     4.878000000     4.177000000
O     1.968000000     4.967000000     4.943000000
C     0.760000000     4.268000000     4.635000000
C    -0.058000000     3.893000000     5.673000000
H     0.324000000     4.139000000     6.661000000
C    -1.320000000     3.360000000     5.434000000
O    -2.085000000     2.845000000     6.495000000
C    -2.933000000     1.801000000     6.296000000
C    -2.478000000     0.618000000     5.725000000
H    -1.442000000     0.534000000     5.406000000
C    -4.193000000     1.916000000     6.862000000
H    -4.543000000     2.859000000     7.273000000
C    -5.061000000     0.831000000     6.798000000
H    -6.072000000     0.881000000     7.194000000
C    -4.636000000    -0.392000000     6.200000000
H    -5.336000000    -1.223000000     6.224000000
C    -3.330000000    -0.479000000     5.691000000
O    -2.919000000    -1.715000000     5.269000000
C    -3.037000000    -2.275000000     4.066000000
C    -2.628000000    -3.646000000     3.920000000
H    -2.395000000    -4.163000000     4.847000000
C    -2.527000000    -4.260000000     2.704000000
O    -2.045000000    -5.546000000     2.663000000
C    -1.998000000    -6.296000000     1.560000000
C    -3.085000000    -6.929000000     0.984000000
H    -3.966000000    -6.913000000     1.622000000
C    -2.919000000    -7.723000000    -0.090000000
H    -3.700000000    -8.373000000    -0.475000000
C    -1.675000000    -7.795000000    -0.709000000
H    -1.528000000    -8.440000000    -1.572000000
C    -0.567000000    -7.177000000    -0.157000000
C    -0.764000000    -6.405000000     0.953000000
H    -0.011000000    -5.843000000     1.500000000
C     1.139000000    -2.875000000     0.457000000
H     0.645000000    -3.840000000     0.536000000
C     0.463000000    -1.772000000     0.009000000
H    -0.540000000    -1.929000000    -0.380000000
C     1.028000000    -0.499000000     0.115000000
C     0.170000000     0.697000000    -0.212000000
H     0.053000000     0.884000000    -1.282000000
H    -0.770000000     0.750000000     0.341000000
H     0.712000000     1.517000000     0.263000000
C     2.295000000    -0.351000000     0.678000000
H     2.661000000     0.664000000     0.806000000
C     2.962000000    -1.443000000     1.157000000
H     3.957000000    -1.257000000     1.553000000
C     2.380000000    -2.738000000     1.082000000
C     3.051000000    -3.924000000     1.614000000
O     4.088000000    -3.755000000     2.154000000
O     2.375000000    -4.916000000     1.881000000
O     3.923000000     0.701000000     5.309000000
H     3.877000000    -0.230000000     5.093000000
H     3.321000000     0.806000000     6.046000000
O     6.190000000    -1.491000000     3.121000000
H     5.374000000    -1.933000000     3.359000000
H     6.871000000    -2.146000000     3.276000000
O     7.986000000    -3.035000000     0.351000000
H     7.466000000    -2.234000000     0.416000000
H     7.338000000    -3.737000000     0.286000000
O     9.616000000    -2.917000000     2.446000000
H    10.110000000    -2.442000000     1.778000000
H     8.779000000    -3.120000000     2.028000000
O     2.330000000    -4.647000000     6.980000000
H     1.388000000    -4.479000000     6.947000000
H     2.598000000    -4.687000000     6.062000000
O     0.779000000    -2.065000000     5.070000000
H     0.215000000    -1.923000000     5.830000000
H     0.883000000    -1.196000000     4.683000000
O     1.257000000    -9.606000000     2.088000000
H     1.609000000    -8.773000000     1.776000000
H     1.815000000    -9.840000000     2.830000000
O     4.640000000    -4.986000000     4.710000000
H     4.288000000    -4.537000000     3.942000000
H     5.552000000    -4.698000000     4.760000000
O     3.366000000    -7.554000000     4.591000000
H     3.825000000    -6.747000000     4.823000000
H     3.259000000    -7.504000000     3.641000000
O     1.095000000    -4.829000000     4.250000000
H     0.829000000    -3.919000000     4.118000000
H     1.578000000    -5.055000000     3.455000000
O    -0.415000000    -7.049000000     4.929000000
H     0.048000000    -6.224000000     4.786000000
H     0.168000000    -7.556000000     5.494000000
O     6.714000000    -8.777000000     2.781000000
H     6.328000000    -8.229000000     3.464000000
H     6.382000000    -9.656000000     2.963000000
O     5.611000000    -7.299000000     0.582000000
H     5.879000000    -7.916000000     1.263000000
H     6.372000000    -7.232000000     0.006000000
O     1.134000000     0.380000000     3.773000000
H     1.919000000     0.851000000     4.054000000
H     1.186000000     0.378000000     2.817000000
O     7.362000000    -3.970000000     4.459000000
H     8.221000000    -4.384000000     4.544000000
H     6.969000000    -4.391000000     3.695000000
O     2.946000000    -7.458000000     1.933000000
H     3.612000000    -7.613000000     1.263000000
H     2.718000000    -6.533000000     1.835000000
O     6.402000000    -4.892000000     1.931000000
H     6.126000000    -5.761000000     1.640000000
H     5.585000000    -4.433000000     2.126000000
O     3.553000000    -2.084000000     4.414000000
H     2.736000000    -2.329000000     4.850000000
H     3.498000000    -2.497000000     3.552000000
O     5.695000000    -3.933000000     7.625000000
H     5.823000000    -3.129000000     8.128000000
H     4.898000000    -3.775000000     7.120000000
