218
-1445.19426
C     4.191000000     2.151000000    -0.490000000
H     3.749000000     3.104000000    -0.210000000
C     3.755000000     1.432000000    -1.588000000
C     4.431000000     0.291000000    -1.953000000
H     4.110000000    -0.326000000    -2.788000000
C     2.557000000     1.870000000    -2.427000000
O     2.316000000     3.344000000    -2.323000000
H     1.616000000     1.443000000    -2.050000000
O     2.612000000     1.595000000    -3.832000000
C     1.496000000     0.973000000    -4.426000000
C     1.442000000    -0.426000000    -4.483000000
H     2.327000000    -1.045000000    -4.358000000
C     0.207000000    -1.010000000    -4.745000000
O     0.131000000    -2.407000000    -4.712000000
C    -1.001000000    -0.266000000    -4.881000000
C    -2.361000000    -1.065000000    -4.954000000
H    -3.062000000    -0.495000000    -5.567000000
C    -2.936000000    -1.270000000    -3.544000000
C    -3.908000000    -0.389000000    -3.107000000
H    -4.232000000     0.443000000    -3.727000000
H    -2.237000000    -1.959000000    -5.568000000
C    -0.943000000     1.074000000    -4.638000000
H    -1.894000000     1.567000000    -4.459000000
C     0.298000000     1.738000000    -4.501000000
C     0.254000000     3.225000000    -4.284000000
H    -0.494000000     3.731000000    -4.898000000
H     1.145000000     3.769000000    -4.603000000
C    -0.019000000     3.704000000    -2.878000000
C    -1.316000000     4.181000000    -2.527000000
H    -2.153000000     4.125000000    -3.218000000
C     1.057000000     3.715000000    -1.980000000
C     0.830000000     4.194000000    -0.716000000
H     1.630000000     4.267000000     0.016000000
C    -0.437000000     4.649000000    -0.324000000
O    -0.580000000     4.957000000     0.997000000
C    -0.976000000     3.996000000     1.899000000
C    -0.228000000     4.162000000     3.301000000
C    -0.718000000     3.516000000     4.403000000
H    -1.643000000     2.965000000     4.260000000
C     1.043000000     4.679000000     3.346000000
H     1.474000000     5.086000000     2.434000000
O    -2.376000000     4.082000000     2.092000000
H    -0.781000000     3.011000000     1.451000000
C    -1.509000000     4.639000000    -1.226000000
C    -2.933000000     4.760000000    -0.818000000
H    -3.606000000     5.088000000    -1.613000000
H    -3.088000000     5.551000000    -0.081000000
C    -3.404000000     3.518000000    -0.043000000
C    -4.178000000     2.539000000    -0.734000000
H    -4.322000000     2.772000000    -1.786000000
C    -3.191000000     3.302000000     1.320000000
C    -3.637000000     2.076000000     1.899000000
H    -3.510000000     1.922000000     2.967000000
C    -4.401000000     1.173000000     1.163000000
O    -4.546000000    -0.065000000     1.820000000
C    -3.735000000    -1.115000000     1.344000000
C    -3.302000000    -2.036000000     2.489000000
C    -2.864000000    -1.448000000     3.668000000
H    -2.803000000    -0.363000000     3.672000000
C    -3.255000000    -3.383000000     2.262000000
H    -3.485000000    -3.717000000     1.253000000
O    -4.484000000    -1.826000000     0.335000000
H    -2.833000000    -0.701000000     0.871000000
C    -4.705000000     1.359000000    -0.184000000
C    -5.443000000     0.396000000    -1.221000000
H    -5.938000000     0.969000000    -2.007000000
H    -6.251000000    -0.129000000    -0.707000000
C    -4.421000000    -0.532000000    -1.823000000
C    -4.058000000    -1.597000000    -0.989000000
C    -3.250000000    -2.542000000    -1.543000000
H    -2.966000000    -3.376000000    -0.905000000
C    -2.612000000    -2.393000000    -2.819000000
O    -1.674000000    -3.332000000    -3.299000000
C    -0.251000000    -2.889000000    -3.356000000
H    -0.163000000    -2.025000000    -2.681000000
C     0.694000000    -4.036000000    -2.878000000
C     2.012000000    -4.141000000    -3.260000000
H     2.469000000    -3.371000000    -3.876000000
C     0.206000000    -4.985000000    -1.995000000
H    -0.820000000    -4.900000000    -1.646000000
C     0.879000000    -6.080000000    -1.453000000
O     0.294000000    -7.003000000    -0.570000000
C     2.217000000    -6.185000000    -1.902000000
H     2.843000000    -6.999000000    -1.545000000
C     2.747000000    -5.279000000    -2.831000000
O     4.100000000    -5.375000000    -3.214000000
C     4.868000000    -4.166000000    -3.394000000
C     5.055000000    -3.274000000    -2.359000000
H     4.597000000    -3.467000000    -1.392000000
C     5.429000000    -3.856000000    -4.644000000
H     5.157000000    -4.445000000    -5.516000000
C     6.208000000    -2.698000000    -4.812000000
H     6.574000000    -2.275000000    -5.744000000
C     6.394000000    -1.872000000    -3.713000000
H     7.095000000    -1.043000000    -3.669000000
C     5.895000000    -2.158000000    -2.491000000
O     6.199000000    -1.346000000    -1.471000000
C     5.473000000    -0.229000000    -1.178000000
C     5.958000000     0.593000000    -0.161000000
H     6.859000000     0.263000000     0.349000000
C     5.316000000     1.746000000     0.222000000
O     5.819000000     2.373000000     1.430000000
C     5.303000000     3.550000000     1.882000000
C     4.285000000     3.541000000     2.905000000
H     3.803000000     2.638000000     3.270000000
C     5.942000000     4.683000000     1.382000000
H     6.663000000     4.615000000     0.572000000
C     5.486000000     5.921000000     1.791000000
H     5.781000000     6.875000000     1.362000000
C     4.588000000     6.007000000     2.835000000
H     4.240000000     6.964000000     3.214000000
C     4.050000000     4.868000000     3.379000000
O     3.243000000     4.911000000     4.555000000
C     1.832000000     4.513000000     4.481000000
C     1.211000000     4.105000000     5.643000000
H     1.709000000     4.019000000     6.605000000
C    -0.035000000     3.529000000     5.604000000
O    -0.491000000     2.859000000     6.798000000
C    -1.499000000     1.862000000     6.707000000
C    -1.163000000     0.597000000     6.252000000
H    -0.154000000     0.299000000     5.979000000
C    -2.849000000     2.134000000     7.001000000
H    -3.071000000     3.173000000     7.231000000
C    -3.823000000     1.187000000     6.758000000
H    -4.852000000     1.418000000     7.022000000
C    -3.461000000    -0.157000000     6.412000000
H    -4.246000000    -0.909000000     6.390000000
C    -2.141000000    -0.390000000     6.106000000
O    -1.783000000    -1.664000000     5.724000000
C    -2.352000000    -2.313000000     4.658000000
C    -2.308000000    -3.676000000     4.459000000
H    -1.864000000    -4.350000000     5.188000000
C    -2.790000000    -4.250000000     3.283000000
O    -2.503000000    -5.636000000     3.060000000
C    -2.455000000    -6.211000000     1.828000000
C    -3.551000000    -6.753000000     1.173000000
H    -4.562000000    -6.680000000     1.567000000
C    -3.399000000    -7.448000000    -0.040000000
H    -4.210000000    -8.013000000    -0.495000000
C    -2.135000000    -7.504000000    -0.659000000
H    -2.049000000    -7.901000000    -1.667000000
C    -1.008000000    -6.929000000    -0.057000000
C    -1.189000000    -6.340000000     1.197000000
H    -0.351000000    -5.889000000     1.722000000
C     0.886000000    -2.727000000     0.736000000
H     0.611000000    -3.778000000     0.780000000
C    -0.097000000    -1.816000000     0.353000000
H    -1.000000000    -2.244000000    -0.075000000
C     0.276000000    -0.480000000     0.196000000
C    -0.732000000     0.539000000    -0.192000000
H    -0.267000000     1.434000000    -0.610000000
H    -1.468000000     0.155000000    -0.902000000
H    -1.323000000     0.848000000     0.672000000
C     1.561000000    -0.001000000     0.496000000
H     1.809000000     1.045000000     0.335000000
C     2.534000000    -0.850000000     0.971000000
H     3.521000000    -0.428000000     1.144000000
C     2.211000000    -2.256000000     0.945000000
C     3.206000000    -3.278000000     1.348000000
O     4.324000000    -2.998000000     1.608000000
O     2.781000000    -4.378000000     1.651000000
O     4.300000000    -0.597000000     5.422000000
H     4.552000000    -0.418000000     6.328000000
H     3.480000000    -0.119000000     5.302000000
O     6.553000000    -2.914000000     7.663000000
H     5.714000000    -2.734000000     8.087000000
H     6.364000000    -2.858000000     6.726000000
O     7.107000000    -3.506000000     0.278000000
H     6.250000000    -3.509000000     0.705000000
H     7.163000000    -2.647000000    -0.141000000
O     8.611000000    -1.817000000     2.720000000
H     8.907000000    -1.653000000     1.825000000
H     7.716000000    -1.479000000     2.742000000
O     7.310000000    -6.117000000    -0.367000000
H     6.445000000    -6.526000000    -0.375000000
H     7.146000000    -5.216000000    -0.089000000
O     6.976000000     1.164000000     4.560000000
H     7.435000000     0.332000000     4.672000000
H     6.780000000     1.207000000     3.624000000
O     0.700000000    -8.543000000     4.857000000
H     1.259000000    -9.320000000     4.852000000
H     0.959000000    -8.057000000     4.074000000
O     2.385000000    -2.771000000     4.916000000
H     2.904000000    -2.331000000     5.589000000
H     1.833000000    -2.080000000     4.548000000
O     0.373000000    -9.289000000     1.620000000
H     0.541000000    -8.574000000     1.007000000
H     0.902000000   -10.017000000     1.291000000
O     4.849000000    -4.140000000     3.886000000
H     4.835000000    -3.827000000     2.981000000
H     4.121000000    -3.684000000     4.308000000
O     2.449000000    -6.228000000     3.517000000
H     2.579000000    -5.528000000     2.877000000
H     1.972000000    -5.811000000     4.235000000
O     5.240000000    -6.811000000     4.588000000
H     4.459000000    -7.306000000     4.341000000
H     5.060000000    -5.918000000     4.293000000
O     1.745000000    -5.259000000     5.878000000
H     0.806000000    -5.274000000     6.064000000
H     1.947000000    -4.334000000     5.740000000
O     6.497000000    -7.150000000    -3.463000000
H     6.520000000    -6.233000000    -3.191000000
H     5.717000000    -7.216000000    -4.015000000
O     0.946000000    -0.757000000     3.497000000
H     0.217000000    -1.306000000     3.209000000
H     1.187000000    -0.252000000     2.720000000
O     7.433000000    -5.030000000     2.691000000
H     6.571000000    -4.922000000     3.092000000
H     7.548000000    -4.244000000     2.156000000
O     3.680000000    -8.997000000     1.775000000
H     3.902000000    -8.168000000     1.352000000
H     2.883000000    -8.807000000     2.271000000
O     4.523000000    -6.397000000     1.123000000
H     5.230000000    -6.057000000     1.672000000
H     3.834000000    -5.736000000     1.185000000
O     5.825000000    -1.040000000     2.763000000
H     5.497000000    -0.861000000     3.644000000
H     5.136000000    -1.561000000     2.352000000
