218
-1445.62623
C     4.511000000     2.482000000    -0.426000000
H     4.155000000     3.507000000    -0.367000000
C     3.898000000     1.651000000    -1.384000000
C     4.296000000     0.282000000    -1.447000000
H     3.782000000    -0.459000000    -2.053000000
C     2.725000000     2.157000000    -2.095000000
O     2.569000000     3.589000000    -2.281000000
H     1.769000000     1.802000000    -1.683000000
O     2.824000000     1.544000000    -3.473000000
C     1.725000000     0.898000000    -4.025000000
C     1.730000000    -0.501000000    -4.084000000
H     2.599000000    -1.093000000    -3.810000000
C     0.477000000    -1.171000000    -4.194000000
O     0.359000000    -2.531000000    -4.046000000
C    -0.653000000    -0.484000000    -4.591000000
C    -1.932000000    -1.199000000    -4.934000000
H    -2.554000000    -0.594000000    -5.598000000
C    -2.756000000    -1.465000000    -3.671000000
C    -3.781000000    -0.597000000    -3.368000000
H    -3.929000000     0.268000000    -4.009000000
H    -1.870000000    -2.126000000    -5.507000000
C    -0.655000000     0.869000000    -4.581000000
H    -1.573000000     1.388000000    -4.843000000
C     0.523000000     1.580000000    -4.297000000
C     0.471000000     3.072000000    -4.364000000
H    -0.303000000     3.484000000    -5.015000000
H     1.308000000     3.494000000    -4.925000000
C     0.301000000     3.809000000    -3.007000000
C    -0.990000000     4.159000000    -2.739000000
H    -1.777000000     3.845000000    -3.419000000
C     1.318000000     4.078000000    -2.106000000
C     1.019000000     4.630000000    -0.900000000
H     1.747000000     4.821000000    -0.116000000
C    -0.308000000     5.052000000    -0.578000000
O    -0.743000000     5.215000000     0.724000000
C    -1.011000000     3.994000000     1.369000000
C    -0.219000000     3.857000000     2.622000000
C    -0.650000000     2.988000000     3.645000000
H    -1.530000000     2.368000000     3.495000000
C     0.949000000     4.607000000     2.813000000
H     1.305000000     5.375000000     2.131000000
O    -2.413000000     4.060000000     1.671000000
H    -0.922000000     3.084000000     0.758000000
C    -1.341000000     4.768000000    -1.507000000
C    -2.838000000     4.959000000    -1.120000000
H    -3.520000000     5.359000000    -1.873000000
H    -2.886000000     5.747000000    -0.365000000
C    -3.468000000     3.660000000    -0.520000000
C    -4.225000000     2.771000000    -1.279000000
H    -4.330000000     2.939000000    -2.348000000
C    -3.240000000     3.368000000     0.844000000
C    -3.733000000     2.162000000     1.331000000
H    -3.457000000     1.872000000     2.342000000
C    -4.429000000     1.251000000     0.562000000
O    -4.936000000     0.101000000     1.202000000
C    -4.044000000    -1.047000000     1.054000000
C    -3.883000000    -1.904000000     2.329000000
C    -3.932000000    -1.376000000     3.633000000
H    -4.091000000    -0.332000000     3.888000000
C    -3.555000000    -3.266000000     2.139000000
H    -3.583000000    -3.722000000     1.152000000
O    -4.597000000    -1.863000000     0.027000000
H    -3.043000000    -0.691000000     0.767000000
C    -4.649000000     1.556000000    -0.786000000
C    -5.303000000     0.515000000    -1.698000000
H    -5.788000000     0.979000000    -2.559000000
H    -6.149000000     0.017000000    -1.221000000
C    -4.414000000    -0.655000000    -2.128000000
C    -4.172000000    -1.815000000    -1.312000000
C    -3.250000000    -2.832000000    -1.755000000
H    -2.926000000    -3.672000000    -1.147000000
C    -2.488000000    -2.554000000    -2.905000000
O    -1.493000000    -3.453000000    -3.168000000
C    -0.165000000    -3.059000000    -2.872000000
H    -0.100000000    -2.291000000    -2.087000000
C     0.690000000    -4.186000000    -2.431000000
C     2.036000000    -4.334000000    -2.835000000
H     2.512000000    -3.623000000    -3.506000000
C     0.124000000    -5.165000000    -1.606000000
H    -0.879000000    -5.075000000    -1.196000000
C     0.848000000    -6.201000000    -1.098000000
O     0.159000000    -7.114000000    -0.316000000
C     2.196000000    -6.378000000    -1.539000000
H     2.805000000    -7.151000000    -1.078000000
C     2.765000000    -5.460000000    -2.366000000
O     4.120000000    -5.496000000    -2.672000000
C     5.071000000    -4.468000000    -2.795000000
C     5.070000000    -3.499000000    -1.753000000
H     4.647000000    -3.739000000    -0.782000000
C     5.547000000    -4.252000000    -4.019000000
H     5.363000000    -4.954000000    -4.828000000
C     6.226000000    -3.065000000    -4.261000000
H     6.722000000    -2.895000000    -5.213000000
C     6.294000000    -2.150000000    -3.207000000
H     6.794000000    -1.192000000    -3.322000000
C     5.740000000    -2.374000000    -1.938000000
O     5.850000000    -1.495000000    -0.887000000
C     5.443000000    -0.125000000    -0.830000000
C     6.009000000     0.717000000     0.104000000
H     6.815000000     0.287000000     0.693000000
C     5.501000000     2.000000000     0.403000000
O     6.108000000     2.844000000     1.348000000
C     5.512000000     4.048000000     1.839000000
C     4.593000000     3.996000000     2.902000000
H     4.321000000     3.012000000     3.276000000
C     5.813000000     5.256000000     1.239000000
H     6.551000000     5.299000000     0.442000000
C     5.303000000     6.468000000     1.813000000
H     5.675000000     7.401000000     1.398000000
C     4.323000000     6.451000000     2.794000000
H     3.821000000     7.381000000     3.048000000
C     3.946000000     5.221000000     3.314000000
O     2.868000000     5.108000000     4.165000000
C     1.786000000     4.305000000     3.838000000
C     1.457000000     3.381000000     4.715000000
H     2.127000000     3.116000000     5.529000000
C     0.203000000     2.721000000     4.704000000
O     0.008000000     1.591000000     5.455000000
C    -1.234000000     1.215000000     6.023000000
C    -1.885000000     0.062000000     5.628000000
H    -1.336000000    -0.614000000     4.978000000
C    -1.787000000     1.954000000     7.093000000
H    -1.297000000     2.861000000     7.434000000
C    -3.024000000     1.644000000     7.624000000
H    -3.579000000     2.399000000     8.174000000
C    -3.623000000     0.413000000     7.271000000
H    -4.533000000    -0.008000000     7.691000000
C    -2.984000000    -0.435000000     6.362000000
O    -3.441000000    -1.685000000     6.006000000
C    -3.551000000    -2.201000000     4.704000000
C    -3.185000000    -3.538000000     4.503000000
H    -3.030000000    -4.187000000     5.361000000
C    -3.189000000    -4.109000000     3.222000000
O    -2.873000000    -5.438000000     3.170000000
C    -2.655000000    -6.155000000     2.016000000
C    -3.676000000    -6.585000000     1.227000000
H    -4.704000000    -6.423000000     1.544000000
C    -3.494000000    -7.163000000    -0.011000000
H    -4.378000000    -7.546000000    -0.515000000
C    -2.189000000    -7.297000000    -0.483000000
H    -1.976000000    -7.750000000    -1.447000000
C    -1.110000000    -6.906000000     0.315000000
C    -1.335000000    -6.198000000     1.523000000
H    -0.514000000    -5.853000000     2.146000000
C     0.063000000    -1.483000000     2.113000000
H    -0.303000000    -2.451000000     2.444000000
C    -0.449000000    -0.998000000     0.877000000
H    -1.139000000    -1.648000000     0.344000000
C     0.025000000     0.210000000     0.301000000
C    -0.497000000     0.744000000    -1.024000000
H    -1.556000000     0.579000000    -1.235000000
H    -0.312000000     1.815000000    -1.128000000
H     0.123000000     0.322000000    -1.817000000
C     0.980000000     0.966000000     0.968000000
H     1.334000000     1.870000000     0.478000000
C     1.540000000     0.518000000     2.195000000
H     2.164000000     1.261000000     2.685000000
C     1.068000000    -0.684000000     2.784000000
C     1.628000000    -1.059000000     4.141000000
O     2.611000000    -0.562000000     4.688000000
O     1.336000000    -2.172000000     4.574000000
O     0.057000000    -6.994000000     5.452000000
H     0.720000000    -7.144000000     4.778000000
H    -0.068000000    -6.045000000     5.458000000
O     4.385000000    -1.862000000     7.983000000
H     4.068000000    -2.383000000     8.721000000
H     4.493000000    -0.981000000     8.341000000
O     2.738000000    -3.241000000     9.860000000
H     2.574000000    -3.974000000     9.267000000
H     1.880000000    -2.836000000     9.984000000
O     2.795000000    -2.182000000     0.830000000
H     3.301000000    -1.795000000     0.116000000
H     1.910000000    -1.837000000     0.711000000
O     6.084000000    -2.894000000     6.093000000
H     6.044000000    -3.400000000     6.904000000
H     5.461000000    -2.180000000     6.225000000
O     0.148000000    -2.490000000     9.510000000
H     0.416000000    -2.291000000     8.613000000
H    -0.107000000    -1.644000000     9.877000000
O     1.554000000     0.987000000     8.173000000
H     1.310000000     1.906000000     8.059000000
H     1.273000000     0.774000000     9.063000000
O     4.518000000    -5.070000000     4.214000000
H     4.329000000    -4.284000000     4.726000000
H     4.079000000    -4.921000000     3.377000000
O     6.796000000    -0.805000000     4.176000000
H     6.589000000    -1.351000000     4.934000000
H     6.154000000    -1.061000000     3.514000000
O     1.730000000    -4.746000000     7.896000000
H     0.850000000    -4.453000000     7.659000000
H     2.278000000    -4.481000000     7.158000000
O     3.831000000     1.409000000     6.397000000
H     3.524000000     0.777000000     5.746000000
H     3.194000000     1.347000000     7.109000000
O     0.733000000    -1.302000000     7.125000000
H     0.984000000    -0.391000000     7.278000000
H     1.088000000    -1.507000000     6.260000000
O     3.076000000    -6.840000000     1.628000000
H     3.961000000    -6.478000000     1.669000000
H     2.510000000    -6.078000000     1.507000000
O     3.147000000    -3.598000000     5.888000000
H     2.630000000    -2.959000000     5.396000000
H     3.655000000    -3.071000000     6.504000000
O    -0.053000000    -4.294000000     5.409000000
H    -0.648000000    -4.177000000     4.669000000
H     0.598000000    -3.600000000     5.305000000
O     7.265000000    -4.310000000     3.471000000
H     7.805000000    -4.773000000     4.112000000
H     6.386000000    -4.315000000     3.850000000
O     6.287000000     3.100000000     6.012000000
H     5.640000000     2.447000000     6.280000000
H     5.787000000     3.912000000     5.930000000
O     2.052000000    -4.142000000     2.605000000
H     1.858000000    -3.562000000     3.341000000
H     2.369000000    -3.558000000     1.917000000
O     4.571000000    -1.427000000     2.808000000
H     4.072000000    -1.648000000     2.021000000
H     3.930000000    -1.025000000     3.394000000
