218
-1479.52152
C     4.036000000     2.576000000    -1.853000000
H     3.644000000     3.589000000    -1.802000000
C     3.363000000     1.730000000    -2.706000000
C     3.864000000     0.440000000    -2.946000000
H     3.230000000    -0.301000000    -3.426000000
C     1.898000000     2.071000000    -3.097000000
O     1.690000000     3.516000000    -3.128000000
H     1.241000000     1.649000000    -2.323000000
O     1.538000000     1.514000000    -4.314000000
C     0.272000000     1.003000000    -4.414000000
C     0.280000000    -0.352000000    -4.569000000
H     1.152000000    -0.989000000    -4.693000000
C    -0.926000000    -0.986000000    -4.583000000
O    -0.864000000    -2.354000000    -4.596000000
C    -2.142000000    -0.310000000    -4.514000000
C    -3.456000000    -1.036000000    -4.373000000
H    -4.255000000    -0.422000000    -4.794000000
C    -3.638000000    -1.283000000    -2.917000000
C    -4.313000000    -0.355000000    -2.120000000
H    -4.757000000     0.493000000    -2.637000000
H    -3.366000000    -1.918000000    -5.011000000
C    -2.150000000     1.093000000    -4.557000000
H    -3.062000000     1.684000000    -4.535000000
C    -0.898000000     1.796000000    -4.410000000
C    -0.840000000     3.344000000    -4.403000000
H    -1.695000000     3.890000000    -4.807000000
H    -0.023000000     3.615000000    -5.075000000
C    -0.643000000     3.803000000    -2.928000000
C    -1.792000000     4.084000000    -2.124000000
H    -2.777000000     4.035000000    -2.582000000
C     0.601000000     3.927000000    -2.394000000
C     0.746000000     4.295000000    -1.054000000
H     1.716000000     4.371000000    -0.570000000
C    -0.360000000     4.635000000    -0.248000000
O    -0.185000000     4.856000000     1.067000000
C    -0.522000000     3.811000000     2.003000000
C     0.508000000     3.602000000     3.119000000
C     0.231000000     2.783000000     4.213000000
H    -0.754000000     2.453000000     4.533000000
C     1.822000000     4.006000000     2.937000000
H     2.050000000     4.615000000     2.067000000
O    -1.849000000     4.079000000     2.523000000
H    -0.545000000     2.817000000     1.533000000
C    -1.619000000     4.489000000    -0.809000000
C    -2.886000000     4.659000000    -0.041000000
H    -3.709000000     4.980000000    -0.683000000
H    -2.788000000     5.518000000     0.627000000
C    -3.297000000     3.420000000     0.702000000
C    -4.137000000     2.519000000     0.091000000
H    -4.265000000     2.635000000    -0.982000000
C    -2.807000000     3.206000000     2.000000000
C    -3.061000000     2.040000000     2.655000000
H    -2.697000000     1.880000000     3.666000000
C    -3.899000000     1.061000000     2.039000000
O    -4.073000000    -0.130000000     2.654000000
C    -3.197000000    -1.123000000     2.064000000
C    -2.592000000    -2.022000000     3.158000000
C    -2.489000000    -1.574000000     4.474000000
H    -2.860000000    -0.590000000     4.749000000
C    -2.252000000    -3.335000000     2.893000000
H    -2.501000000    -3.652000000     1.884000000
O    -4.067000000    -1.857000000     1.172000000
H    -2.473000000    -0.621000000     1.406000000
C    -4.430000000     1.372000000     0.731000000
C    -5.318000000     0.379000000     0.044000000
H    -6.045000000     0.911000000    -0.573000000
H    -5.855000000    -0.195000000     0.801000000
C    -4.528000000    -0.551000000    -0.792000000
C    -3.981000000    -1.722000000    -0.192000000
C    -3.284000000    -2.630000000    -0.982000000
H    -2.677000000    -3.435000000    -0.574000000
C    -3.115000000    -2.430000000    -2.331000000
O    -2.327000000    -3.318000000    -3.068000000
C    -0.948000000    -2.890000000    -3.244000000
H    -0.844000000    -2.054000000    -2.536000000
C     0.085000000    -4.025000000    -2.916000000
C     1.278000000    -4.260000000    -3.614000000
H     1.385000000    -3.531000000    -4.413000000
C    -0.156000000    -4.902000000    -1.847000000
H    -1.072000000    -4.817000000    -1.267000000
C     0.732000000    -5.944000000    -1.569000000
O     0.516000000    -6.879000000    -0.557000000
C     1.912000000    -6.041000000    -2.273000000
H     2.659000000    -6.738000000    -1.900000000
C     2.226000000    -5.110000000    -3.253000000
O     3.526000000    -5.256000000    -3.743000000
C     4.208000000    -4.053000000    -4.104000000
C     4.698000000    -3.122000000    -3.192000000
H     4.661000000    -3.389000000    -2.139000000
C     4.304000000    -3.736000000    -5.457000000
H     3.992000000    -4.573000000    -6.075000000
C     4.910000000    -2.575000000    -5.957000000
H     5.020000000    -2.459000000    -7.032000000
C     5.418000000    -1.651000000    -4.972000000
H     5.824000000    -0.707000000    -5.327000000
C     5.342000000    -1.992000000    -3.657000000
O     5.777000000    -1.087000000    -2.735000000
C     5.131000000     0.104000000    -2.464000000
C     5.796000000     0.975000000    -1.678000000
H     6.749000000     0.686000000    -1.244000000
C     5.246000000     2.217000000    -1.368000000
O     5.836000000     2.911000000    -0.422000000
C     5.398000000     3.931000000     0.315000000
C     4.855000000     3.596000000     1.586000000
H     4.649000000     2.574000000     1.893000000
C     5.629000000     5.251000000    -0.032000000
H     6.137000000     5.514000000    -0.957000000
C     5.358000000     6.273000000     0.867000000
H     5.596000000     7.302000000     0.608000000
C     4.789000000     5.954000000     2.140000000
H     4.600000000     6.696000000     2.911000000
C     4.552000000     4.599000000     2.483000000
O     4.031000000     4.341000000     3.767000000
C     2.833000000     3.777000000     3.888000000
C     2.504000000     2.956000000     4.936000000
H     3.249000000     2.801000000     5.712000000
C     1.228000000     2.515000000     5.110000000
O     1.071000000     1.737000000     6.230000000
C    -0.142000000     1.241000000     6.716000000
C    -0.316000000    -0.135000000     6.745000000
H     0.439000000    -0.812000000     6.354000000
C    -1.233000000     2.117000000     6.979000000
H    -1.095000000     3.193000000     7.038000000
C    -2.455000000     1.632000000     7.412000000
H    -3.282000000     2.223000000     7.797000000
C    -2.622000000     0.242000000     7.432000000
H    -3.575000000    -0.168000000     7.756000000
C    -1.571000000    -0.630000000     7.044000000
O    -1.944000000    -1.926000000     6.805000000
C    -1.997000000    -2.384000000     5.476000000
C    -1.660000000    -3.706000000     5.181000000
H    -1.334000000    -4.346000000     5.997000000
C    -1.807000000    -4.185000000     3.900000000
O    -1.525000000    -5.505000000     3.673000000
C    -1.614000000    -6.131000000     2.450000000
C    -2.867000000    -6.606000000     2.032000000
H    -3.744000000    -6.527000000     2.669000000
C    -2.955000000    -7.150000000     0.744000000
H    -3.926000000    -7.377000000     0.311000000
C    -1.824000000    -7.208000000    -0.067000000
H    -1.885000000    -7.526000000    -1.105000000
C    -0.557000000    -6.739000000     0.312000000
C    -0.477000000    -6.306000000     1.635000000
H     0.507000000    -5.943000000     1.924000000
C     1.725000000    -2.904000000     0.749000000
H     2.217000000    -3.745000000     0.267000000
C     0.991000000    -2.087000000    -0.124000000
H     0.880000000    -2.271000000    -1.189000000
C     0.368000000    -0.928000000     0.334000000
C    -0.438000000    -0.121000000    -0.691000000
H     0.163000000     0.043000000    -1.588000000
H    -1.369000000    -0.605000000    -0.994000000
H    -0.703000000     0.865000000    -0.305000000
C     0.451000000    -0.573000000     1.676000000
H     0.013000000     0.335000000     2.082000000
C     1.082000000    -1.406000000     2.572000000
H     0.975000000    -1.316000000     3.650000000
C     1.702000000    -2.597000000     2.145000000
C     2.450000000    -3.421000000     3.118000000
O     2.513000000    -3.072000000     4.230000000
O     3.324000000    -4.216000000     2.731000000
O     6.792000000    -7.083000000     1.300000000
H     6.685000000    -7.833000000     0.715000000
H     5.977000000    -7.052000000     1.801000000
O     4.156000000    -1.384000000     0.656000000
H     4.297000000    -0.656000000     1.261000000
H     3.338000000    -1.785000000     0.950000000
O     7.215000000     0.054000000     2.497000000
H     6.330000000     0.328000000     2.736000000
H     7.085000000    -0.637000000     1.848000000
O     6.472000000    -5.037000000     4.154000000
H     7.169000000    -5.534000000     3.725000000
H     6.855000000    -4.754000000     4.984000000
O     0.507000000    -6.420000000     6.822000000
H     0.585000000    -6.953000000     6.031000000
H     1.084000000    -6.846000000     7.456000000
O     5.246000000    -2.480000000     3.551000000
H     5.959000000    -3.088000000     3.356000000
H     4.454000000    -3.014000000     3.497000000
O     4.238000000    -7.231000000     7.006000000
H     4.035000000    -6.335000000     6.735000000
H     3.526000000    -7.469000000     7.600000000
O     3.429000000    -8.659000000     4.805000000
H     3.805000000    -8.115000000     5.497000000
H     3.817000000    -8.321000000     3.998000000
O     5.978000000    -1.695000000     6.176000000
H     5.733000000    -1.905000000     5.274000000
H     6.873000000    -1.363000000     6.109000000
O     2.699000000    -8.106000000     0.435000000
H     2.366000000    -8.968000000     0.683000000
H     1.915000000    -7.566000000     0.335000000
O     3.302000000    -1.231000000     6.080000000
H     3.121000000    -1.792000000     5.326000000
H     4.233000000    -1.363000000     6.259000000
O     4.699000000    -4.252000000     0.324000000
H     4.846000000    -4.680000000     1.168000000
H     4.368000000    -3.384000000     0.551000000
O     4.165000000    -6.921000000     2.506000000
H     3.790000000    -6.055000000     2.666000000
H     3.675000000    -7.260000000     1.757000000
O     1.067000000    -3.487000000     6.608000000
H     0.757000000    -4.392000000     6.577000000
H     1.416000000    -3.322000000     5.732000000
O     3.801000000    -4.384000000     8.369000000
H     3.802000000    -4.269000000     7.419000000
H     3.398000000    -3.584000000     8.706000000
O     4.501000000     0.160000000     2.893000000
H     4.899000000    -0.674000000     3.142000000
H     3.635000000     0.143000000     3.302000000
O     3.973000000    -4.729000000     5.648000000
H     3.261000000    -4.329000000     5.148000000
H     4.688000000    -4.819000000     5.018000000
O     2.722000000    -0.092000000     8.456000000
H     2.714000000    -0.532000000     7.606000000
H     2.655000000    -0.803000000     9.094000000
O     6.812000000    -2.009000000     0.628000000
H     6.719000000    -2.944000000     0.445000000
H     5.931000000    -1.654000000     0.511000000
