218
-1490.56661
C     3.390000000     2.879000000    -3.367000000
H     2.747000000     3.718000000    -3.623000000
C     2.946000000     1.576000000    -3.415000000
C     3.821000000     0.488000000    -3.176000000
H     3.472000000    -0.537000000    -3.085000000
C     1.517000000     1.168000000    -3.783000000
O     0.793000000     2.340000000    -4.227000000
H     1.061000000     0.809000000    -2.849000000
O     1.473000000     0.091000000    -4.763000000
C     0.514000000    -0.877000000    -4.654000000
C     0.929000000    -2.024000000    -3.989000000
H     1.972000000    -2.271000000    -3.806000000
C    -0.018000000    -2.935000000    -3.491000000
O     0.502000000    -4.008000000    -2.779000000
C    -1.406000000    -2.721000000    -3.700000000
C    -2.381000000    -3.825000000    -3.263000000
H    -3.117000000    -3.998000000    -4.052000000
C    -2.886000000    -3.703000000    -1.799000000
C    -4.044000000    -2.991000000    -1.476000000
H    -4.702000000    -2.675000000    -2.281000000
H    -1.899000000    -4.795000000    -3.398000000
C    -1.782000000    -1.598000000    -4.397000000
H    -2.837000000    -1.462000000    -4.620000000
C    -0.851000000    -0.648000000    -4.846000000
C    -1.354000000     0.635000000    -5.380000000
H    -2.341000000     0.420000000    -5.794000000
H    -0.702000000     0.976000000    -6.187000000
C    -1.565000000     1.651000000    -4.319000000
C    -2.823000000     1.756000000    -3.716000000
H    -3.577000000     1.073000000    -4.098000000
C    -0.505000000     2.408000000    -3.795000000
C    -0.717000000     3.404000000    -2.890000000
H     0.132000000     3.898000000    -2.425000000
C    -1.998000000     3.507000000    -2.328000000
O    -2.127000000     4.388000000    -1.242000000
C    -2.159000000     3.796000000     0.089000000
C    -1.213000000     4.554000000     0.990000000
C    -1.640000000     4.931000000     2.237000000
H    -2.685000000     4.858000000     2.527000000
C     0.093000000     4.770000000     0.601000000
H     0.488000000     4.444000000    -0.358000000
O    -3.505000000     3.610000000     0.585000000
H    -1.731000000     2.790000000    -0.028000000
C    -3.034000000     2.630000000    -2.669000000
C    -4.424000000     2.746000000    -2.026000000
H    -5.250000000     2.424000000    -2.664000000
H    -4.586000000     3.766000000    -1.670000000
C    -4.527000000     1.876000000    -0.735000000
C    -4.938000000     0.529000000    -0.799000000
H    -5.105000000     0.173000000    -1.813000000
C    -4.063000000     2.405000000     0.506000000
C    -4.141000000     1.605000000     1.681000000
H    -3.780000000     1.938000000     2.650000000
C    -4.626000000     0.287000000     1.559000000
O    -4.445000000    -0.572000000     2.679000000
C    -3.250000000    -1.434000000     2.612000000
C    -2.490000000    -1.292000000     3.914000000
C    -2.158000000    -0.015000000     4.397000000
H    -2.521000000     0.900000000     3.937000000
C    -2.080000000    -2.442000000     4.610000000
H    -2.408000000    -3.429000000     4.295000000
O    -3.547000000    -2.839000000     2.174000000
H    -2.533000000    -0.980000000     1.912000000
C    -5.023000000    -0.264000000     0.338000000
C    -5.402000000    -1.696000000     0.211000000
H    -5.985000000    -1.799000000    -0.706000000
H    -5.900000000    -1.990000000     1.137000000
C    -4.282000000    -2.686000000    -0.140000000
C    -3.448000000    -3.210000000     0.847000000
C    -2.289000000    -3.905000000     0.509000000
H    -1.633000000    -4.329000000     1.265000000
C    -2.018000000    -4.181000000    -0.784000000
O    -0.829000000    -4.828000000    -1.029000000
C     0.303000000    -4.008000000    -1.370000000
H     0.051000000    -2.962000000    -1.139000000
C     1.571000000    -4.392000000    -0.620000000
C     2.875000000    -4.279000000    -1.196000000
H     3.021000000    -4.022000000    -2.241000000
C     1.513000000    -4.690000000     0.707000000
H     0.536000000    -4.679000000     1.183000000
C     2.674000000    -4.917000000     1.490000000
O     2.703000000    -5.137000000     2.855000000
C     3.904000000    -4.872000000     0.898000000
H     4.802000000    -5.029000000     1.491000000
C     3.971000000    -4.576000000    -0.464000000
O     5.166000000    -4.656000000    -1.038000000
C     5.612000000    -3.806000000    -2.005000000
C     5.610000000    -2.429000000    -1.832000000
H     5.166000000    -1.946000000    -0.965000000
C     6.026000000    -4.458000000    -3.174000000
H     5.993000000    -5.541000000    -3.265000000
C     6.487000000    -3.607000000    -4.168000000
H     6.844000000    -4.072000000    -5.084000000
C     6.459000000    -2.236000000    -4.116000000
H     6.811000000    -1.594000000    -4.920000000
C     6.045000000    -1.641000000    -2.885000000
O     6.171000000    -0.263000000    -2.772000000
C     5.187000000     0.760000000    -2.901000000
C     5.564000000     2.073000000    -2.688000000
H     6.585000000     2.262000000    -2.367000000
C     4.686000000     3.130000000    -2.915000000
O     5.078000000     4.379000000    -2.750000000
C     4.327000000     5.219000000    -1.913000000
C     3.858000000     4.801000000    -0.694000000
H     4.227000000     3.850000000    -0.319000000
C     4.042000000     6.518000000    -2.429000000
H     4.512000000     6.774000000    -3.375000000
C     3.187000000     7.362000000    -1.723000000
H     2.955000000     8.336000000    -2.147000000
C     2.614000000     6.864000000    -0.534000000
H     1.842000000     7.430000000    -0.021000000
C     2.930000000     5.621000000     0.021000000
O     2.447000000     5.197000000     1.172000000
C     1.075000000     5.251000000     1.495000000
C     0.673000000     5.520000000     2.849000000
H     1.391000000     5.987000000     3.518000000
C    -0.694000000     5.437000000     3.181000000
O    -1.033000000     5.734000000     4.434000000
C    -1.562000000     4.651000000     5.127000000
C    -0.841000000     3.499000000     5.426000000
H     0.204000000     3.353000000     5.165000000
C    -2.844000000     4.788000000     5.631000000
H    -3.337000000     5.740000000     5.455000000
C    -3.501000000     3.697000000     6.255000000
H    -4.561000000     3.762000000     6.486000000
C    -2.777000000     2.527000000     6.394000000
H    -3.259000000     1.652000000     6.823000000
C    -1.461000000     2.403000000     5.948000000
O    -0.745000000     1.210000000     5.921000000
C    -1.212000000    -0.006000000     5.457000000
C    -0.633000000    -1.121000000     6.012000000
H     0.175000000    -0.943000000     6.717000000
C    -1.065000000    -2.334000000     5.588000000
O    -0.444000000    -3.500000000     6.090000000
C     0.067000000    -4.552000000     5.336000000
C    -0.649000000    -5.676000000     5.163000000
H    -1.532000000    -5.741000000     5.794000000
C    -0.238000000    -6.726000000     4.385000000
H    -0.785000000    -7.665000000     4.413000000
C     1.003000000    -6.581000000     3.766000000
H     1.381000000    -7.362000000     3.112000000
C     1.602000000    -5.355000000     3.617000000
C     1.131000000    -4.337000000     4.457000000
H     1.547000000    -3.333000000     4.420000000
C     2.268000000     0.080000000     0.270000000
H     3.177000000    -0.340000000    -0.154000000
C     1.079000000    -0.297000000    -0.326000000
H     1.039000000    -0.867000000    -1.251000000
C    -0.137000000     0.238000000     0.163000000
C    -1.442000000     0.037000000    -0.472000000
H    -1.368000000     0.327000000    -1.522000000
H    -1.853000000    -0.953000000    -0.263000000
H    -2.135000000     0.770000000    -0.053000000
C    -0.133000000     0.996000000     1.273000000
H    -1.009000000     1.488000000     1.689000000
C     1.080000000     1.392000000     1.821000000
H     1.145000000     2.149000000     2.597000000
C     2.300000000     0.900000000     1.400000000
C     3.583000000     1.236000000     2.088000000
O     3.580000000     1.244000000     3.301000000
O     4.664000000     1.467000000     1.527000000
O     7.770000000     4.096000000    -0.103000000
H     7.216000000     4.035000000    -0.881000000
H     7.155000000     4.217000000     0.621000000
O     5.276000000    -0.606000000     4.470000000
H     4.715000000     0.153000000     4.314000000
H     5.510000000    -0.915000000     3.595000000
O     7.808000000     1.671000000     2.423000000
H     7.168000000     2.371000000     2.295000000
H     8.657000000     2.105000000     2.340000000
O     4.983000000    -3.233000000     4.927000000
H     4.263000000    -3.182000000     4.298000000
H     5.163000000    -2.323000000     5.160000000
O     5.937000000     3.861000000     1.950000000
H     5.480000000     3.025000000     1.866000000
H     5.307000000     4.436000000     2.385000000
O     8.668000000     0.821000000     5.880000000
H     7.917000000     1.279000000     5.503000000
H     9.429000000     1.221000000     5.459000000
O     0.752000000    -1.684000000     2.363000000
H     1.073000000    -0.880000000     1.954000000
H     0.600000000    -2.281000000     1.630000000
O     8.199000000    -1.486000000     4.366000000
H     7.592000000    -0.980000000     4.905000000
H     9.059000000    -1.317000000     4.750000000
O     2.509000000     0.825000000     6.885000000
H     2.897000000     0.141000000     7.431000000
H     2.103000000     0.351000000     6.160000000
O     3.856000000     7.847000000     2.829000000
H     3.818000000     6.893000000     2.897000000
H     4.333000000     8.125000000     3.611000000
O     7.260000000    -4.173000000     3.500000000
H     7.522000000    -3.272000000     3.312000000
H     6.487000000    -4.087000000     4.057000000
O     1.905000000    -0.717000000     4.531000000
H     2.308000000    -0.027000000     4.004000000
H     1.208000000    -1.066000000     3.976000000
O     6.413000000     1.980000000     4.714000000
H     5.456000000     1.971000000     4.684000000
H     6.683000000     1.800000000     3.813000000
O     5.855000000    -0.819000000     7.826000000
H     5.745000000    -0.805000000     6.875000000
H     5.582000000     0.052000000     8.112000000
O     8.652000000    -0.783000000     1.256000000
H     8.610000000     0.077000000     1.673000000
H     9.145000000    -1.325000000     1.873000000
O     8.566000000     4.790000000     3.969000000
H     8.345000000     4.400000000     4.815000000
H     7.721000000     4.920000000     3.538000000
O     5.798000000    -0.968000000     1.682000000
H     5.499000000    -0.064000000     1.584000000
H     6.741000000    -0.927000000     1.526000000
O     4.235000000     5.180000000     3.740000000
H     4.554000000     5.492000000     4.587000000
H     3.731000000     4.394000000     3.949000000
O     2.837000000     3.183000000     4.940000000
H     2.917000000     2.514000000     4.260000000
H     2.730000000     2.687000000     5.752000000
