218
-1495.70840
C     3.457000000     2.438000000    -1.476000000
H     2.734000000     3.245000000    -1.390000000
C     3.242000000     1.337000000    -2.374000000
C     4.220000000     0.292000000    -2.454000000
H     3.946000000    -0.616000000    -2.986000000
C     1.893000000     1.164000000    -3.142000000
O     1.566000000     2.413000000    -3.749000000
H     1.068000000     0.925000000    -2.455000000
O     1.878000000     0.228000000    -4.223000000
C     0.807000000    -0.594000000    -4.293000000
C     0.965000000    -1.918000000    -3.896000000
H     1.947000000    -2.258000000    -3.575000000
C    -0.053000000    -2.802000000    -3.888000000
O     0.114000000    -4.026000000    -3.245000000
C    -1.376000000    -2.316000000    -4.224000000
C    -2.553000000    -3.270000000    -3.956000000
H    -3.360000000    -3.177000000    -4.686000000
C    -3.002000000    -3.130000000    -2.529000000
C    -4.022000000    -2.184000000    -2.253000000
H    -4.471000000    -1.597000000    -3.050000000
H    -2.188000000    -4.291000000    -4.092000000
C    -1.542000000    -1.018000000    -4.677000000
H    -2.470000000    -0.696000000    -5.143000000
C    -0.465000000    -0.158000000    -4.666000000
C    -0.566000000     1.279000000    -5.254000000
H    -1.416000000     1.221000000    -5.937000000
H     0.280000000     1.649000000    -5.835000000
C    -0.794000000     2.272000000    -4.153000000
C    -2.097000000     2.646000000    -3.801000000
H    -2.943000000     2.280000000    -4.378000000
C     0.304000000     2.911000000    -3.550000000
C     0.092000000     3.795000000    -2.533000000
H     0.970000000     4.247000000    -2.078000000
C    -1.158000000     4.125000000    -2.083000000
O    -1.323000000     4.863000000    -0.886000000
C    -1.512000000     4.187000000     0.343000000
C    -0.732000000     4.949000000     1.447000000
C    -1.077000000     4.741000000     2.815000000
H    -1.949000000     4.155000000     3.091000000
C     0.436000000     5.642000000     1.172000000
H     0.712000000     5.784000000     0.130000000
O    -2.936000000     4.080000000     0.702000000
H    -1.151000000     3.148000000     0.330000000
C    -2.251000000     3.527000000    -2.717000000
C    -3.679000000     3.731000000    -2.178000000
H    -4.415000000     3.717000000    -2.985000000
H    -3.743000000     4.699000000    -1.677000000
C    -4.018000000     2.742000000    -1.083000000
C    -4.581000000     1.468000000    -1.374000000
H    -4.984000000     1.279000000    -2.366000000
C    -3.528000000     2.898000000     0.250000000
C    -3.780000000     1.916000000     1.180000000
H    -3.678000000     2.104000000     2.246000000
C    -4.497000000     0.750000000     0.948000000
O    -4.484000000    -0.165000000     1.989000000
C    -3.436000000    -1.178000000     1.869000000
C    -2.812000000    -1.469000000     3.235000000
C    -2.220000000    -0.448000000     3.934000000
H    -2.223000000     0.594000000     3.622000000
C    -2.660000000    -2.792000000     3.708000000
H    -3.055000000    -3.678000000     3.218000000
O    -4.136000000    -2.377000000     1.400000000
H    -2.713000000    -0.917000000     1.081000000
C    -4.979000000     0.509000000    -0.396000000
C    -5.615000000    -0.848000000    -0.706000000
H    -6.222000000    -0.878000000    -1.613000000
H    -6.176000000    -1.242000000     0.144000000
C    -4.496000000    -1.920000000    -0.917000000
C    -3.917000000    -2.711000000     0.080000000
C    -2.910000000    -3.671000000    -0.198000000
H    -2.355000000    -4.282000000     0.509000000
C    -2.503000000    -3.897000000    -1.474000000
O    -1.357000000    -4.669000000    -1.699000000
C    -0.118000000    -4.038000000    -1.868000000
H    -0.219000000    -3.010000000    -1.489000000
C     1.039000000    -4.695000000    -1.115000000
C     2.323000000    -4.686000000    -1.674000000
H     2.517000000    -4.411000000    -2.708000000
C     0.788000000    -5.288000000     0.113000000
H    -0.251000000    -5.318000000     0.433000000
C     1.808000000    -5.687000000     0.904000000
O     1.614000000    -6.116000000     2.228000000
C     3.138000000    -5.613000000     0.377000000
H     3.990000000    -5.949000000     0.963000000
C     3.347000000    -5.124000000    -0.936000000
O     4.580000000    -5.223000000    -1.398000000
C     5.260000000    -4.191000000    -2.106000000
C     5.221000000    -2.924000000    -1.610000000
H     4.540000000    -2.736000000    -0.784000000
C     6.045000000    -4.588000000    -3.162000000
H     5.979000000    -5.613000000    -3.518000000
C     6.695000000    -3.572000000    -3.896000000
H     7.294000000    -3.868000000    -4.753000000
C     6.790000000    -2.295000000    -3.358000000
H     7.546000000    -1.614000000    -3.741000000
C     6.051000000    -1.976000000    -2.229000000
O     6.224000000    -0.716000000    -1.641000000
C     5.349000000     0.370000000    -1.686000000
C     5.623000000     1.481000000    -0.951000000
H     6.429000000     1.539000000    -0.224000000
C     4.730000000     2.526000000    -0.879000000
O     5.204000000     3.602000000    -0.195000000
C     4.645000000     4.831000000    -0.144000000
C     3.801000000     5.224000000     0.897000000
H     3.532000000     4.438000000     1.597000000
C     4.972000000     5.735000000    -1.114000000
H     5.604000000     5.425000000    -1.943000000
C     4.571000000     7.047000000    -1.090000000
H     4.963000000     7.755000000    -1.816000000
C     3.662000000     7.429000000    -0.118000000
H     3.386000000     8.480000000    -0.079000000
C     3.213000000     6.513000000     0.841000000
O     2.322000000     6.893000000     1.829000000
C     1.239000000     6.134000000     2.222000000
C     0.890000000     5.967000000     3.539000000
H     1.486000000     6.386000000     4.345000000
C    -0.281000000     5.309000000     3.894000000
O    -0.513000000     5.008000000     5.236000000
C    -1.249000000     3.924000000     5.676000000
C    -0.662000000     2.625000000     5.611000000
H     0.344000000     2.492000000     5.222000000
C    -2.603000000     4.109000000     6.065000000
H    -3.037000000     5.103000000     5.994000000
C    -3.391000000     3.029000000     6.458000000
H    -4.404000000     3.162000000     6.830000000
C    -2.825000000     1.746000000     6.318000000
H    -3.398000000     0.863000000     6.589000000
C    -1.482000000     1.578000000     6.015000000
O    -0.901000000     0.296000000     5.893000000
C    -1.527000000    -0.700000000     5.122000000
C    -1.408000000    -1.998000000     5.598000000
H    -0.857000000    -2.074000000     6.532000000
C    -1.948000000    -3.072000000     4.900000000
O    -1.644000000    -4.374000000     5.375000000
C    -1.262000000    -5.320000000     4.387000000
C    -2.113000000    -6.307000000     3.960000000
H    -3.116000000    -6.197000000     4.363000000
C    -1.767000000    -7.205000000     2.976000000
H    -2.476000000    -8.011000000     2.806000000
C    -0.509000000    -7.164000000     2.411000000
H    -0.148000000    -7.874000000     1.671000000
C     0.366000000    -6.241000000     2.851000000
C     0.040000000    -5.303000000     3.837000000
H     0.832000000    -4.675000000     4.236000000
C     2.572000000    -0.184000000     0.652000000
H     3.581000000    -0.536000000     0.454000000
C     1.533000000    -0.663000000    -0.100000000
H     1.790000000    -1.426000000    -0.831000000
C     0.273000000    -0.127000000    -0.019000000
C    -0.793000000    -0.492000000    -0.996000000
H    -0.443000000    -0.559000000    -2.028000000
H    -1.290000000    -1.441000000    -0.784000000
H    -1.492000000     0.345000000    -1.046000000
C    -0.018000000     0.753000000     1.035000000
H    -1.021000000     1.172000000     1.020000000
C     1.068000000     1.129000000     1.859000000
H     0.970000000     1.850000000     2.667000000
C     2.356000000     0.729000000     1.654000000
C     3.483000000     1.346000000     2.467000000
O     3.300000000     2.010000000     3.492000000
O     4.634000000     0.891000000     2.274000000
O     3.737000000     7.076000000     5.054000000
H     3.654000000     8.008000000     5.257000000
H     4.431000000     7.036000000     4.396000000
O     8.330000000     2.164000000     4.922000000
H     9.144000000     2.667000000     4.907000000
H     7.797000000     2.549000000     4.227000000
O     8.875000000    -0.238000000    -0.642000000
H     8.990000000     0.141000000     0.230000000
H     8.392000000     0.428000000    -1.131000000
O     6.185000000     2.793000000     6.824000000
H     5.564000000     2.838000000     6.097000000
H     6.980000000     2.426000000     6.437000000
O     6.176000000    -1.468000000     1.309000000
H     6.638000000    -1.226000000     0.507000000
H     5.986000000    -0.633000000     1.738000000
O     2.400000000    -2.143000000     5.791000000
H     1.946000000    -1.890000000     6.595000000
H     2.607000000    -1.313000000     5.362000000
O     3.282000000     0.395000000     5.593000000
H     3.232000000     1.105000000     4.952000000
H     4.204000000     0.137000000     5.592000000
O     8.577000000    -0.810000000     3.697000000
H     7.703000000    -1.098000000     3.431000000
H     8.743000000    -0.030000000     3.167000000
O     6.382000000    -2.035000000     6.301000000
H     5.674000000    -2.628000000     6.050000000
H     6.366000000    -1.347000000     5.637000000
O     2.840000000     1.228000000     8.095000000
H     2.944000000     0.970000000     7.180000000
H     3.042000000     0.435000000     8.592000000
O     4.528000000    -3.807000000     5.275000000
H     3.795000000    -3.190000000     5.275000000
H     4.972000000    -3.649000000     4.442000000
O     5.931000000     0.355000000     4.881000000
H     5.469000000     0.686000000     4.111000000
H     6.776000000     0.804000000     4.865000000
O     2.000000000     4.966000000     6.749000000
H     1.537000000     4.291000000     7.246000000
H     1.355000000     5.282000000     6.116000000
O     6.015000000     4.793000000     3.618000000
H     5.187000000     4.560000000     4.039000000
H     6.044000000     5.749000000     3.662000000
O     5.808000000    -3.649000000     3.012000000
H     6.277000000    -4.369000000     2.590000000
H     6.046000000    -2.876000000     2.500000000
O     6.799000000     2.512000000     2.722000000
H     5.954000000     2.213000000     2.385000000
H     6.668000000     3.442000000     2.908000000
O     8.994000000     1.148000000     1.698000000
H     9.817000000     1.587000000     1.914000000
H     8.316000000     1.777000000     1.942000000
O     4.067000000     3.857000000     5.104000000
H     3.265000000     4.065000000     5.584000000
H     3.813000000     3.153000000     4.507000000
O     0.810000000     2.905000000     8.571000000
H     1.043000000     2.813000000     9.494000000
H     1.552000000     2.527000000     8.098000000
