218
-1486.36700
C     3.877000000     2.486000000    -2.079000000
H     3.137000000     3.259000000    -1.891000000
C     3.503000000     1.404000000    -2.862000000
C     4.401000000     0.367000000    -3.157000000
H     4.117000000    -0.497000000    -3.752000000
C     2.074000000     1.212000000    -3.386000000
O     1.547000000     2.507000000    -3.829000000
H     1.557000000     1.037000000    -2.431000000
O     1.932000000     0.274000000    -4.522000000
C     0.916000000    -0.638000000    -4.502000000
C     1.111000000    -1.893000000    -3.981000000
H     2.142000000    -2.144000000    -3.747000000
C     0.096000000    -2.777000000    -3.771000000
O     0.461000000    -3.926000000    -3.114000000
C    -1.225000000    -2.507000000    -4.046000000
C    -2.451000000    -3.335000000    -3.640000000
H    -3.308000000    -3.067000000    -4.263000000
C    -2.871000000    -3.149000000    -2.159000000
C    -3.944000000    -2.300000000    -1.948000000
H    -4.424000000    -1.742000000    -2.747000000
H    -2.244000000    -4.406000000    -3.690000000
C    -1.456000000    -1.173000000    -4.516000000
H    -2.465000000    -0.819000000    -4.710000000
C    -0.415000000    -0.272000000    -4.752000000
C    -0.708000000     1.090000000    -5.247000000
H    -1.611000000     1.038000000    -5.860000000
H     0.096000000     1.322000000    -5.948000000
C    -0.918000000     2.040000000    -4.103000000
C    -2.204000000     2.261000000    -3.695000000
H    -3.034000000     1.686000000    -4.097000000
C     0.204000000     2.785000000    -3.600000000
C    -0.074000000     3.658000000    -2.558000000
H     0.740000000     4.171000000    -2.051000000
C    -1.392000000     3.865000000    -2.113000000
O    -1.504000000     4.693000000    -0.998000000
C    -1.702000000     3.972000000     0.241000000
C    -0.774000000     4.502000000     1.401000000
C    -1.170000000     4.386000000     2.727000000
H    -2.022000000     3.738000000     2.922000000
C     0.518000000     5.038000000     1.151000000
H     0.863000000     4.988000000     0.122000000
O    -3.083000000     3.983000000     0.618000000
H    -1.499000000     2.907000000     0.056000000
C    -2.454000000     3.152000000    -2.641000000
C    -3.864000000     3.353000000    -2.111000000
H    -4.498000000     2.984000000    -2.920000000
H    -4.240000000     4.373000000    -2.003000000
C    -4.114000000     2.459000000    -0.896000000
C    -4.740000000     1.229000000    -1.185000000
H    -4.959000000     0.848000000    -2.180000000
C    -3.756000000     2.811000000     0.401000000
C    -3.998000000     1.893000000     1.478000000
H    -3.787000000     2.158000000     2.511000000
C    -4.471000000     0.648000000     1.183000000
O    -4.516000000    -0.311000000     2.137000000
C    -3.482000000    -1.263000000     2.188000000
C    -2.812000000    -1.349000000     3.571000000
C    -3.181000000    -0.403000000     4.548000000
H    -3.788000000     0.467000000     4.306000000
C    -1.848000000    -2.306000000     3.831000000
H    -1.559000000    -3.063000000     3.107000000
O    -3.952000000    -2.543000000     1.723000000
H    -2.677000000    -0.936000000     1.512000000
C    -4.921000000     0.334000000    -0.134000000
C    -5.495000000    -1.053000000    -0.411000000
H    -6.241000000    -1.009000000    -1.207000000
H    -6.010000000    -1.372000000     0.498000000
C    -4.385000000    -2.080000000    -0.613000000
C    -3.717000000    -2.708000000     0.395000000
C    -2.631000000    -3.541000000     0.137000000
H    -2.045000000    -3.983000000     0.939000000
C    -2.215000000    -3.743000000    -1.146000000
O    -1.157000000    -4.603000000    -1.490000000
C     0.111000000    -3.977000000    -1.725000000
H     0.026000000    -2.963000000    -1.306000000
C     1.251000000    -4.635000000    -0.925000000
C     2.581000000    -4.576000000    -1.393000000
H     2.791000000    -4.054000000    -2.323000000
C     1.009000000    -5.220000000     0.247000000
H     0.010000000    -5.293000000     0.670000000
C     2.051000000    -5.780000000     0.982000000
O     1.725000000    -6.466000000     2.134000000
C     3.357000000    -5.745000000     0.530000000
H     4.157000000    -6.257000000     1.059000000
C     3.619000000    -5.084000000    -0.664000000
O     4.965000000    -4.932000000    -1.119000000
C     5.366000000    -4.086000000    -2.127000000
C     5.810000000    -2.793000000    -1.858000000
H     5.723000000    -2.415000000    -0.843000000
C     5.440000000    -4.625000000    -3.423000000
H     5.404000000    -5.697000000    -3.601000000
C     5.762000000    -3.736000000    -4.465000000
H     5.774000000    -4.165000000    -5.463000000
C     6.150000000    -2.459000000    -4.192000000
H     6.412000000    -1.890000000    -5.081000000
C     6.154000000    -1.937000000    -2.902000000
O     6.533000000    -0.625000000    -2.661000000
C     5.687000000     0.434000000    -2.674000000
C     6.156000000     1.586000000    -2.034000000
H     7.190000000     1.672000000    -1.711000000
C     5.241000000     2.615000000    -1.790000000
O     5.699000000     3.744000000    -1.141000000
C     4.860000000     4.860000000    -0.834000000
C     4.250000000     4.903000000     0.423000000
H     4.363000000     4.136000000     1.185000000
C     4.672000000     5.786000000    -1.819000000
H     5.124000000     5.690000000    -2.803000000
C     3.718000000     6.767000000    -1.549000000
H     3.569000000     7.442000000    -2.388000000
C     2.985000000     6.829000000    -0.380000000
H     2.232000000     7.601000000    -0.236000000
C     3.269000000     5.917000000     0.648000000
O     2.614000000     5.906000000     1.903000000
C     1.371000000     5.506000000     2.111000000
C     0.924000000     5.438000000     3.441000000
H     1.585000000     5.656000000     4.275000000
C    -0.303000000     4.852000000     3.709000000
O    -0.494000000     4.587000000     5.061000000
C    -1.603000000     3.887000000     5.494000000
C    -1.527000000     2.489000000     5.808000000
H    -0.610000000     1.925000000     5.665000000
C    -2.841000000     4.601000000     5.574000000
H    -2.944000000     5.626000000     5.229000000
C    -4.006000000     4.006000000     5.984000000
H    -4.830000000     4.693000000     6.162000000
C    -3.901000000     2.678000000     6.348000000
H    -4.844000000     2.290000000     6.726000000
C    -2.725000000     1.921000000     6.279000000
O    -2.700000000     0.608000000     6.695000000
C    -2.494000000    -0.411000000     5.763000000
C    -1.432000000    -1.328000000     5.999000000
H    -0.924000000    -1.290000000     6.959000000
C    -1.168000000    -2.347000000     5.035000000
O    -0.131000000    -3.271000000     5.237000000
C    -0.114000000    -4.552000000     4.685000000
C    -1.172000000    -5.417000000     5.017000000
H    -1.906000000    -5.027000000     5.716000000
C    -1.224000000    -6.663000000     4.393000000
H    -1.992000000    -7.418000000     4.542000000
C    -0.152000000    -7.011000000     3.529000000
H    -0.098000000    -8.030000000     3.157000000
C     0.837000000    -6.100000000     3.063000000
C     0.802000000    -4.805000000     3.663000000
H     1.481000000    -4.029000000     3.320000000
C     3.218000000     0.203000000     0.642000000
H     4.087000000    -0.225000000     0.148000000
C     2.002000000    -0.219000000     0.209000000
H     1.797000000    -0.992000000    -0.527000000
C     0.827000000     0.325000000     0.677000000
C    -0.479000000    -0.045000000     0.110000000
H    -0.823000000    -0.947000000     0.619000000
H    -1.247000000     0.711000000     0.286000000
H    -0.497000000    -0.350000000    -0.939000000
C     0.902000000     1.321000000     1.659000000
H    -0.025000000     1.721000000     2.064000000
C     2.148000000     1.751000000     2.166000000
H     2.256000000     2.540000000     2.905000000
C     3.307000000     1.094000000     1.698000000
C     4.638000000     1.374000000     2.290000000
O     4.733000000     2.391000000     2.949000000
O     5.514000000     0.512000000     2.377000000
O     7.664000000     5.114000000     0.548000000
H     7.116000000     5.074000000    -0.236000000
H     7.518000000     4.275000000     0.986000000
O     4.592000000    -1.448000000     5.479000000
H     5.107000000    -1.411000000     4.673000000
H     4.946000000    -0.743000000     6.021000000
O     7.493000000    -2.344000000     0.942000000
H     7.938000000    -1.876000000     1.648000000
H     8.080000000    -2.260000000     0.191000000
O     8.968000000    -1.126000000     3.017000000
H     9.641000000    -1.638000000     3.466000000
H     9.450000000    -0.620000000     2.363000000
O    10.627000000     3.270000000     1.586000000
H     9.772000000     3.213000000     1.161000000
H    10.487000000     2.898000000     2.457000000
O     4.194000000     6.068000000     5.470000000
H     4.563000000     5.228000000     5.194000000
H     3.444000000     5.832000000     6.016000000
O     2.811000000    -3.441000000     6.165000000
H     3.496000000    -2.782000000     6.047000000
H     2.244000000    -3.336000000     5.401000000
O     7.534000000     2.505000000     1.242000000
H     7.395000000     1.618000000     0.910000000
H     6.998000000     2.550000000     2.034000000
O     8.044000000     2.912000000     6.500000000
H     7.616000000     2.114000000     6.190000000
H     8.096000000     2.803000000     7.449000000
O     2.655000000    -1.522000000     3.049000000
H     3.585000000    -1.739000000     2.980000000
H     2.550000000    -0.745000000     2.500000000
O     2.015000000     2.213000000     6.595000000
H     2.048000000     1.828000000     7.471000000
H     1.825000000     1.475000000     6.016000000
O     6.339000000     7.025000000     2.513000000
H     6.367000000     6.146000000     2.892000000
H     6.693000000     6.916000000     1.630000000
O     1.397000000    -0.112000000     5.082000000
H     1.955000000    -0.562000000     4.448000000
H     0.807000000    -0.792000000     5.406000000
O     7.354000000     0.608000000     4.612000000
H     8.202000000     0.305000000     4.287000000
H     6.718000000     0.248000000     3.993000000
O     5.622000000     0.764000000     6.634000000
H     6.276000000     0.897000000     5.948000000
H     5.035000000     1.516000000     6.554000000
O     5.267000000    -2.200000000     2.432000000
H     5.498000000    -1.274000000     2.364000000
H     5.941000000    -2.654000000     1.926000000
O     6.383000000     4.375000000     3.520000000
H     6.957000000     3.862000000     4.090000000
H     5.709000000     3.755000000     3.240000000
O     9.851000000     2.650000000     4.369000000
H     8.977000000     2.648000000     4.759000000
H    10.305000000     1.922000000     4.795000000
O     4.381000000     3.070000000     5.438000000
H     4.361000000     2.984000000     4.485000000
H     3.490000000     2.855000000     5.716000000
