218
-1437.36067
C     4.118000000     2.719000000    -2.165000000
H     3.667000000     3.690000000    -2.354000000
C     3.584000000     1.505000000    -2.469000000
C     4.357000000     0.352000000    -2.315000000
H     3.933000000    -0.630000000    -2.511000000
C     2.270000000     1.280000000    -3.199000000
O     1.770000000     2.473000000    -3.869000000
H     1.645000000     0.901000000    -2.377000000
O     2.327000000     0.176000000    -4.114000000
C     1.286000000    -0.717000000    -4.191000000
C     1.404000000    -1.987000000    -3.620000000
H     2.344000000    -2.191000000    -3.114000000
C     0.270000000    -2.901000000    -3.586000000
O     0.474000000    -4.070000000    -2.943000000
C    -0.978000000    -2.490000000    -4.018000000
C    -2.182000000    -3.329000000    -3.751000000
H    -2.962000000    -3.235000000    -4.510000000
C    -2.780000000    -3.029000000    -2.344000000
C    -3.867000000    -2.132000000    -2.171000000
H    -4.334000000    -1.764000000    -3.080000000
H    -1.922000000    -4.389000000    -3.738000000
C    -1.038000000    -1.314000000    -4.715000000
H    -2.003000000    -0.987000000    -5.092000000
C     0.062000000    -0.453000000    -4.845000000
C    -0.169000000     0.918000000    -5.502000000
H    -1.017000000     0.825000000    -6.184000000
H     0.752000000     1.026000000    -6.079000000
C    -0.526000000     1.944000000    -4.409000000
C    -1.897000000     2.182000000    -4.053000000
H    -2.652000000     1.520000000    -4.468000000
C     0.448000000     2.735000000    -3.793000000
C     0.141000000     3.526000000    -2.788000000
H     0.884000000     4.031000000    -2.176000000
C    -1.152000000     3.776000000    -2.458000000
O    -1.323000000     4.604000000    -1.371000000
C    -1.645000000     3.924000000    -0.122000000
C    -0.930000000     4.603000000     1.017000000
C    -1.513000000     4.753000000     2.272000000
H    -2.594000000     4.842000000     2.195000000
C     0.418000000     4.824000000     0.996000000
H     0.946000000     4.617000000     0.069000000
O    -3.121000000     4.009000000    -0.014000000
H    -1.312000000     2.876000000    -0.158000000
C    -2.202000000     3.229000000    -3.179000000
C    -3.647000000     3.326000000    -2.699000000
H    -4.266000000     2.983000000    -3.531000000
H    -3.944000000     4.376000000    -2.650000000
C    -4.059000000     2.499000000    -1.458000000
C    -4.632000000     1.243000000    -1.597000000
H    -4.847000000     0.958000000    -2.624000000
C    -3.864000000     2.930000000    -0.152000000
C    -4.137000000     2.147000000     0.975000000
H    -3.750000000     2.421000000     1.954000000
C    -4.579000000     0.844000000     0.820000000
O    -4.609000000     0.027000000     1.920000000
C    -3.677000000    -1.008000000     1.922000000
C    -2.953000000    -1.184000000     3.222000000
C    -3.044000000    -0.123000000     4.122000000
H    -3.575000000     0.800000000     3.907000000
C    -2.356000000    -2.368000000     3.590000000
H    -2.560000000    -3.285000000     3.044000000
O    -4.213000000    -2.262000000     1.438000000
H    -2.941000000    -0.715000000     1.159000000
C    -4.864000000     0.371000000    -0.486000000
C    -5.498000000    -0.883000000    -0.738000000
H    -6.058000000    -0.844000000    -1.675000000
H    -6.125000000    -1.267000000     0.069000000
C    -4.449000000    -1.907000000    -0.923000000
C    -3.903000000    -2.569000000     0.115000000
C    -2.815000000    -3.442000000     0.043000000
H    -2.377000000    -3.929000000     0.910000000
C    -2.207000000    -3.599000000    -1.195000000
O    -1.033000000    -4.423000000    -1.167000000
C     0.302000000    -3.985000000    -1.522000000
H     0.270000000    -2.933000000    -1.201000000
C     1.395000000    -4.685000000    -0.704000000
C     2.681000000    -4.811000000    -1.273000000
H     2.946000000    -4.408000000    -2.247000000
C     1.201000000    -5.230000000     0.560000000
H     0.187000000    -5.286000000     0.947000000
C     2.246000000    -5.792000000     1.319000000
O     1.954000000    -6.306000000     2.572000000
C     3.480000000    -5.971000000     0.720000000
H     4.254000000    -6.512000000     1.258000000
C     3.697000000    -5.432000000    -0.506000000
O     4.959000000    -5.530000000    -1.023000000
C     5.476000000    -4.420000000    -1.715000000
C     5.551000000    -3.127000000    -1.137000000
H     5.245000000    -3.018000000    -0.100000000
C     5.851000000    -4.535000000    -3.045000000
H     5.662000000    -5.462000000    -3.580000000
C     6.280000000    -3.435000000    -3.752000000
H     6.474000000    -3.560000000    -4.814000000
C     6.432000000    -2.169000000    -3.201000000
H     6.862000000    -1.313000000    -3.715000000
C     5.989000000    -2.029000000    -1.921000000
O     6.236000000    -0.823000000    -1.347000000
C     5.596000000     0.409000000    -1.696000000
C     6.033000000     1.626000000    -1.225000000
H     7.031000000     1.745000000    -0.812000000
C     5.358000000     2.801000000    -1.497000000
O     5.859000000     3.931000000    -0.972000000
C     5.128000000     4.892000000    -0.444000000
C     4.314000000     4.588000000     0.673000000
H     4.351000000     3.609000000     1.143000000
C     5.057000000     6.138000000    -1.097000000
H     5.550000000     6.291000000    -2.054000000
C     4.132000000     6.992000000    -0.646000000
H     3.980000000     7.994000000    -1.038000000
C     3.287000000     6.728000000     0.440000000
H     2.648000000     7.525000000     0.811000000
C     3.474000000     5.560000000     1.213000000
O     2.612000000     5.349000000     2.214000000
C     1.194000000     5.225000000     2.092000000
C     0.523000000     5.319000000     3.317000000
H     1.050000000     5.628000000     4.216000000
C    -0.820000000     4.993000000     3.435000000
O    -1.461000000     5.146000000     4.641000000
C    -2.482000000     4.258000000     5.002000000
C    -2.089000000     2.982000000     5.315000000
H    -1.095000000     2.594000000     5.106000000
C    -3.781000000     4.697000000     5.297000000
H    -4.022000000     5.740000000     5.109000000
C    -4.729000000     3.782000000     5.704000000
H    -5.769000000     4.032000000     5.511000000
C    -4.340000000     2.434000000     5.937000000
H    -5.093000000     1.736000000     6.292000000
C    -2.972000000     2.044000000     5.881000000
O    -2.581000000     0.727000000     6.332000000
C    -2.412000000    -0.279000000     5.417000000
C    -1.703000000    -1.463000000     5.734000000
H    -1.132000000    -1.554000000     6.654000000
C    -1.647000000    -2.459000000     4.800000000
O    -1.000000000    -3.559000000     5.247000000
C    -0.670000000    -4.723000000     4.569000000
C    -1.562000000    -5.769000000     4.725000000
H    -2.489000000    -5.561000000     5.252000000
C    -1.339000000    -6.931000000     4.112000000
H    -2.100000000    -7.692000000     4.269000000
C    -0.156000000    -7.106000000     3.311000000
H     0.073000000    -8.030000000     2.785000000
C     0.818000000    -6.108000000     3.350000000
C     0.573000000    -4.870000000     3.936000000
H     1.204000000    -3.986000000     3.975000000
C     2.686000000     0.119000000     0.675000000
H     3.680000000    -0.266000000     0.459000000
C     1.569000000    -0.328000000     0.044000000
H     1.639000000    -1.160000000    -0.652000000
C     0.344000000     0.219000000     0.323000000
C    -0.899000000    -0.466000000    -0.305000000
H    -1.754000000     0.214000000    -0.315000000
H    -0.685000000    -0.716000000    -1.346000000
H    -1.039000000    -1.322000000     0.357000000
C     0.090000000     1.149000000     1.363000000
H    -0.901000000     1.471000000     1.675000000
C     1.206000000     1.613000000     1.980000000
H     1.185000000     2.339000000     2.788000000
C     2.532000000     1.168000000     1.632000000
C     3.744000000     1.592000000     2.455000000
O     3.596000000     2.141000000     3.528000000
O     4.881000000     1.098000000     2.160000000
O     3.197000000     6.491000000     6.281000000
H     3.460000000     6.114000000     7.121000000
H     3.162000000     5.744000000     5.684000000
O     7.434000000    -2.917000000     1.827000000
H     7.196000000    -3.748000000     2.238000000
H     7.990000000    -3.166000000     1.089000000
O     6.445000000     2.527000000     7.115000000
H     5.777000000     2.298000000     7.760000000
H     6.114000000     2.172000000     6.290000000
O     9.433000000     0.701000000     0.616000000
H     8.590000000     0.389000000     0.945000000
H     9.900000000    -0.094000000     0.359000000
O     7.309000000     5.151000000     6.246000000
H     7.097000000     4.305000000     6.642000000
H     6.906000000     5.117000000     5.378000000
O     7.216000000    -0.216000000     1.382000000
H     7.178000000    -1.169000000     1.300000000
H     6.304000000     0.051000000     1.500000000
O     2.121000000    -1.362000000     4.720000000
H     2.342000000    -1.678000000     5.596000000
H     1.527000000    -0.627000000     4.874000000
O     8.860000000     0.494000000     4.124000000
H     8.321000000     1.175000000     3.722000000
H     9.254000000     0.919000000     4.885000000
O     1.719000000     1.676000000     5.248000000
H     2.219000000     1.791000000     4.440000000
H     2.384000000     1.591000000     5.931000000
O     9.117000000     6.046000000     2.776000000
H     8.552000000     5.273000000     2.757000000
H     8.964000000     6.432000000     3.639000000
O     8.469000000     3.359000000     1.235000000
H     8.707000000     2.597000000     0.707000000
H     7.842000000     3.021000000     1.874000000
O     5.387000000    -0.989000000     7.546000000
H     5.079000000    -0.469000000     6.804000000
H     6.340000000    -0.989000000     7.460000000
O     5.536000000     0.773000000     5.181000000
H     6.174000000     0.447000000     4.547000000
H     4.851000000     1.175000000     4.646000000
O     3.325000000     3.519000000     7.610000000
H     3.806000000     4.219000000     8.052000000
H     3.644000000     2.714000000     8.018000000
O     6.112000000     4.785000000     3.785000000
H     6.140000000     5.538000000     3.195000000
H     5.221000000     4.788000000     4.136000000
O     4.512000000    -1.842000000     3.389000000
H     3.710000000    -1.761000000     3.904000000
H     4.812000000    -0.941000000     3.269000000
O     7.103000000     2.237000000     3.184000000
H     6.322000000     1.731000000     2.960000000
H     6.769000000     3.106000000     3.407000000
O     8.240000000    -2.093000000     4.284000000
H     7.596000000    -2.306000000     3.608000000
H     8.379000000    -1.151000000     4.195000000
O     3.677000000     4.188000000     5.093000000
H     3.663000000     3.491000000     4.436000000
H     3.491000000     3.742000000     5.919000000
