218
-1467.78872
C     3.767000000     3.327000000    -1.181000000
H     3.113000000     4.151000000    -0.907000000
C     3.461000000     2.305000000    -2.123000000
C     4.372000000     1.257000000    -2.376000000
H     4.213000000     0.550000000    -3.186000000
C     2.113000000     2.478000000    -2.801000000
O     1.544000000     3.848000000    -2.867000000
H     1.497000000     1.921000000    -2.080000000
O     2.103000000     1.964000000    -4.119000000
C     1.080000000     1.093000000    -4.405000000
C     1.426000000    -0.282000000    -4.365000000
H     2.424000000    -0.587000000    -4.059000000
C     0.407000000    -1.204000000    -4.519000000
O     0.767000000    -2.505000000    -4.236000000
C    -0.902000000    -0.849000000    -4.808000000
C    -2.098000000    -1.830000000    -4.832000000
H    -2.890000000    -1.429000000    -5.467000000
C    -2.625000000    -2.006000000    -3.425000000
C    -3.677000000    -1.267000000    -2.911000000
H    -4.216000000    -0.518000000    -3.486000000
H    -1.660000000    -2.762000000    -5.195000000
C    -1.183000000     0.516000000    -4.952000000
H    -2.187000000     0.829000000    -5.226000000
C    -0.195000000     1.514000000    -4.700000000
C    -0.706000000     2.973000000    -4.638000000
H    -1.627000000     3.087000000    -5.215000000
H    -0.017000000     3.642000000    -5.158000000
C    -0.815000000     3.454000000    -3.200000000
C    -2.107000000     3.469000000    -2.704000000
H    -2.864000000     3.083000000    -3.381000000
C     0.259000000     4.023000000    -2.462000000
C    -0.008000000     4.431000000    -1.151000000
H     0.849000000     4.617000000    -0.508000000
C    -1.294000000     4.363000000    -0.586000000
O    -1.428000000     4.738000000     0.774000000
C    -1.800000000     3.707000000     1.716000000
C    -1.009000000     3.743000000     2.963000000
C    -1.442000000     3.135000000     4.121000000
H    -2.377000000     2.581000000     4.094000000
C     0.266000000     4.357000000     2.905000000
H     0.684000000     4.753000000     1.983000000
O    -3.223000000     3.670000000     1.911000000
H    -1.664000000     2.719000000     1.252000000
C    -2.351000000     3.931000000    -1.426000000
C    -3.744000000     4.069000000    -0.974000000
H    -4.356000000     4.268000000    -1.856000000
H    -3.669000000     4.960000000    -0.347000000
C    -4.159000000     2.792000000    -0.199000000
C    -4.631000000     1.685000000    -0.900000000
H    -4.676000000     1.666000000    -1.985000000
C    -3.905000000     2.650000000     1.205000000
C    -4.019000000     1.430000000     1.825000000
H    -3.705000000     1.227000000     2.846000000
C    -4.468000000     0.333000000     1.099000000
O    -4.293000000    -0.798000000     1.788000000
C    -3.354000000    -1.869000000     1.443000000
C    -2.780000000    -2.537000000     2.711000000
C    -3.013000000    -2.081000000     4.009000000
H    -3.716000000    -1.268000000     4.169000000
C    -1.952000000    -3.633000000     2.527000000
H    -1.810000000    -4.012000000     1.518000000
O    -3.949000000    -2.790000000     0.508000000
H    -2.451000000    -1.367000000     1.064000000
C    -4.809000000     0.383000000    -0.239000000
C    -5.338000000    -0.851000000    -1.003000000
H    -5.971000000    -0.473000000    -1.808000000
H    -6.065000000    -1.370000000    -0.375000000
C    -4.130000000    -1.595000000    -1.602000000
C    -3.553000000    -2.577000000    -0.771000000
C    -2.505000000    -3.295000000    -1.319000000
H    -1.994000000    -4.083000000    -0.771000000
C    -1.980000000    -2.938000000    -2.594000000
O    -0.904000000    -3.700000000    -3.028000000
C     0.418000000    -3.038000000    -2.955000000
H     0.370000000    -2.335000000    -2.111000000
C     1.495000000    -4.037000000    -2.491000000
C     2.853000000    -3.839000000    -2.835000000
H     3.118000000    -3.077000000    -3.562000000
C     1.176000000    -4.999000000    -1.547000000
H     0.153000000    -5.217000000    -1.252000000
C     2.090000000    -5.908000000    -1.111000000
O     1.784000000    -7.013000000    -0.312000000
C     3.406000000    -5.665000000    -1.443000000
H     4.067000000    -6.477000000    -1.152000000
C     3.841000000    -4.585000000    -2.205000000
O     5.215000000    -4.324000000    -2.397000000
C     5.722000000    -3.192000000    -2.938000000
C     5.867000000    -2.064000000    -2.117000000
H     5.374000000    -2.063000000    -1.148000000
C     6.071000000    -3.184000000    -4.305000000
H     6.060000000    -4.083000000    -4.916000000
C     6.444000000    -2.008000000    -4.851000000
H     6.809000000    -1.996000000    -5.875000000
C     6.658000000    -0.879000000    -4.048000000
H     6.908000000     0.010000000    -4.621000000
C     6.399000000    -0.922000000    -2.611000000
O     6.558000000     0.256000000    -1.835000000
C     5.592000000     1.303000000    -1.697000000
C     5.886000000     2.202000000    -0.772000000
H     6.935000000     2.197000000    -0.487000000
C     4.979000000     3.287000000    -0.532000000
O     5.273000000     4.282000000     0.434000000
C     4.371000000     5.133000000     1.098000000
C     3.731000000     4.740000000     2.337000000
H     3.759000000     3.704000000     2.666000000
C     4.210000000     6.383000000     0.615000000
H     4.752000000     6.611000000    -0.300000000
C     3.400000000     7.254000000     1.276000000
H     3.180000000     8.277000000     0.981000000
C     2.642000000     6.822000000     2.368000000
H     1.824000000     7.355000000     2.845000000
C     2.871000000     5.595000000     2.961000000
O     2.214000000     5.141000000     4.099000000
C     1.036000000     4.421000000     4.047000000
C     0.487000000     3.937000000     5.233000000
H     0.986000000     3.949000000     6.199000000
C    -0.663000000     3.221000000     5.289000000
O    -1.014000000     2.521000000     6.417000000
C    -2.068000000     1.646000000     6.591000000
C    -1.731000000     0.256000000     6.507000000
H    -0.730000000    -0.022000000     6.187000000
C    -3.408000000     2.002000000     6.689000000
H    -3.588000000     3.073000000     6.643000000
C    -4.344000000     1.017000000     6.774000000
H    -5.347000000     1.395000000     6.957000000
C    -4.013000000    -0.306000000     6.805000000
H    -4.766000000    -1.082000000     6.905000000
C    -2.738000000    -0.688000000     6.640000000
O    -2.412000000    -2.084000000     6.409000000
C    -2.349000000    -2.636000000     5.146000000
C    -1.454000000    -3.667000000     4.909000000
H    -1.084000000    -4.166000000     5.800000000
C    -1.307000000    -4.201000000     3.604000000
O    -0.417000000    -5.269000000     3.501000000
C    -0.389000000    -6.118000000     2.432000000
C    -1.484000000    -7.043000000     2.235000000
H    -2.267000000    -7.227000000     2.966000000
C    -1.445000000    -7.912000000     1.141000000
H    -2.193000000    -8.700000000     1.112000000
C    -0.383000000    -7.890000000     0.251000000
H    -0.397000000    -8.523000000    -0.633000000
C     0.726000000    -7.067000000     0.521000000
C     0.691000000    -6.144000000     1.626000000
H     1.521000000    -5.493000000     1.886000000
C     2.598000000     0.464000000     0.777000000
H     3.637000000     0.340000000     0.481000000
C     1.521000000     0.271000000    -0.107000000
H     1.669000000     0.025000000    -1.155000000
C     0.228000000     0.485000000     0.239000000
C    -0.926000000     0.298000000    -0.725000000
H    -0.699000000     0.494000000    -1.775000000
H    -1.251000000    -0.744000000    -0.764000000
H    -1.816000000     0.874000000    -0.462000000
C    -0.035000000     0.864000000     1.561000000
H    -1.080000000     1.090000000     1.756000000
C     1.021000000     1.069000000     2.489000000
H     0.831000000     1.315000000     3.531000000
C     2.366000000     0.847000000     2.121000000
C     3.464000000     0.951000000     3.148000000
O     3.098000000     1.397000000     4.228000000
O     4.557000000     0.416000000     3.045000000
O     1.227000000    -2.674000000     1.626000000
H     1.492000000    -2.465000000     2.522000000
H     0.754000000    -1.897000000     1.329000000
O     5.328000000    -1.735000000     7.053000000
H     5.691000000    -1.230000000     6.326000000
H     5.797000000    -1.416000000     7.824000000
O     6.063000000     0.374000000     5.324000000
H     5.492000000     0.712000000     4.634000000
H     6.262000000     1.137000000     5.865000000
O     5.722000000     4.947000000     5.083000000
H     5.371000000     5.672000000     5.599000000
H     5.150000000     4.207000000     5.288000000
O     7.229000000    -4.217000000     3.992000000
H     7.302000000    -3.332000000     3.634000000
H     6.647000000    -4.674000000     3.385000000
O     1.485000000    -1.965000000     4.284000000
H     1.529000000    -2.527000000     5.058000000
H     1.503000000    -1.074000000     4.634000000
O     2.743000000    -3.239000000     7.355000000
H     3.484000000    -2.636000000     7.418000000
H     1.978000000    -2.702000000     7.561000000
O     6.948000000     6.011000000     2.436000000
H     6.691000000     5.611000000     3.266000000
H     6.592000000     5.426000000     1.767000000
O     3.329000000     3.007000000     8.744000000
H     2.959000000     2.135000000     8.876000000
H     2.644000000     3.606000000     9.042000000
O     2.206000000     0.547000000     8.791000000
H     2.095000000     0.123000000     7.940000000
H     1.393000000     0.358000000     9.260000000
O     7.594000000    -1.467000000     3.688000000
H     7.160000000    -0.744000000     4.143000000
H     7.166000000    -1.502000000     2.833000000
O     2.475000000    -0.222000000     6.205000000
H     3.316000000    -0.629000000     6.412000000
H     2.691000000     0.470000000     5.579000000
O     9.176000000     1.585000000     2.543000000
H     9.223000000     2.529000000     2.699000000
H     8.254000000     1.421000000     2.344000000
O     8.496000000    -1.070000000     0.220000000
H     8.409000000    -0.179000000    -0.119000000
H     7.630000000    -1.280000000     0.569000000
O     5.972000000    -1.375000000     1.385000000
H     5.416000000    -0.710000000     1.792000000
H     5.440000000    -2.171000000     1.396000000
O     8.515000000     4.620000000     5.647000000
H     7.601000000     4.626000000     5.363000000
H     9.019000000     4.663000000     4.834000000
O     3.829000000    -3.602000000     0.911000000
H     3.685000000    -3.974000000     0.041000000
H     2.993000000    -3.195000000     1.139000000
O     6.612000000     2.002000000     2.080000000
H     5.872000000     1.431000000     2.288000000
H     6.246000000     2.664000000     1.494000000
O     4.196000000     2.886000000     6.026000000
H     3.718000000     2.370000000     5.376000000
H     3.637000000     2.871000000     6.803000000
