218
-1488.72598
C     3.811000000     3.451000000    -1.548000000
H     3.261000000     4.348000000    -1.273000000
C     3.391000000     2.437000000    -2.390000000
C     4.225000000     1.286000000    -2.518000000
H     3.811000000     0.400000000    -2.993000000
C     1.969000000     2.339000000    -2.949000000
O     1.345000000     3.568000000    -3.125000000
H     1.406000000     1.831000000    -2.152000000
O     1.966000000     1.690000000    -4.291000000
C     0.949000000     0.866000000    -4.553000000
C     1.232000000    -0.469000000    -4.370000000
H     2.211000000    -0.862000000    -4.107000000
C     0.220000000    -1.458000000    -4.332000000
O     0.556000000    -2.707000000    -4.016000000
C    -1.104000000    -1.048000000    -4.584000000
C    -2.261000000    -2.010000000    -4.686000000
H    -3.063000000    -1.511000000    -5.234000000
C    -2.687000000    -2.414000000    -3.275000000
C    -3.820000000    -1.724000000    -2.780000000
H    -4.327000000    -0.986000000    -3.397000000
H    -1.903000000    -2.847000000    -5.290000000
C    -1.370000000     0.269000000    -4.771000000
H    -2.414000000     0.565000000    -4.842000000
C    -0.355000000     1.252000000    -4.784000000
C    -0.777000000     2.742000000    -4.745000000
H    -1.743000000     2.831000000    -5.248000000
H    -0.141000000     3.298000000    -5.437000000
C    -1.062000000     3.328000000    -3.418000000
C    -2.366000000     3.402000000    -2.941000000
H    -3.244000000     3.165000000    -3.536000000
C     0.047000000     3.739000000    -2.640000000
C    -0.104000000     4.341000000    -1.351000000
H     0.754000000     4.598000000    -0.735000000
C    -1.456000000     4.356000000    -0.826000000
O    -1.627000000     4.687000000     0.454000000
C    -1.762000000     3.661000000     1.462000000
C    -0.890000000     3.812000000     2.699000000
C    -1.338000000     3.433000000     3.984000000
H    -2.271000000     2.900000000     4.142000000
C     0.402000000     4.330000000     2.577000000
H     0.620000000     4.727000000     1.589000000
O    -3.132000000     3.407000000     1.753000000
H    -1.270000000     2.774000000     1.036000000
C    -2.583000000     3.894000000    -1.604000000
C    -3.963000000     3.696000000    -1.084000000
H    -4.634000000     3.773000000    -1.942000000
H    -4.121000000     4.508000000    -0.371000000
C    -4.111000000     2.451000000    -0.225000000
C    -4.607000000     1.325000000    -0.850000000
H    -4.850000000     1.432000000    -1.904000000
C    -3.731000000     2.394000000     1.106000000
C    -3.850000000     1.220000000     1.814000000
H    -3.650000000     1.188000000     2.882000000
C    -4.500000000     0.125000000     1.274000000
O    -4.419000000    -1.024000000     2.032000000
C    -3.408000000    -1.954000000     1.600000000
C    -2.795000000    -2.542000000     2.851000000
C    -2.640000000    -1.750000000     4.023000000
H    -2.866000000    -0.687000000     3.984000000
C    -2.390000000    -3.834000000     2.883000000
H    -2.599000000    -4.515000000     2.062000000
O    -3.877000000    -2.932000000     0.684000000
H    -2.577000000    -1.434000000     1.099000000
C    -4.896000000     0.158000000    -0.093000000
C    -5.434000000    -1.069000000    -0.817000000
H    -6.200000000    -0.821000000    -1.554000000
H    -5.958000000    -1.721000000    -0.115000000
C    -4.214000000    -1.892000000    -1.433000000
C    -3.564000000    -2.852000000    -0.657000000
C    -2.554000000    -3.651000000    -1.228000000
H    -2.026000000    -4.395000000    -0.636000000
C    -2.085000000    -3.423000000    -2.510000000
O    -0.917000000    -4.066000000    -2.835000000
C     0.280000000    -3.272000000    -2.728000000
H     0.140000000    -2.483000000    -1.975000000
C     1.478000000    -4.046000000    -2.185000000
C     2.750000000    -3.662000000    -2.513000000
H     2.862000000    -2.895000000    -3.275000000
C     1.229000000    -4.889000000    -1.111000000
H     0.207000000    -4.993000000    -0.756000000
C     2.248000000    -5.576000000    -0.538000000
O     1.985000000    -6.275000000     0.650000000
C     3.589000000    -5.331000000    -0.906000000
H     4.419000000    -5.832000000    -0.416000000
C     3.812000000    -4.282000000    -1.842000000
O     5.135000000    -4.142000000    -2.301000000
C     5.535000000    -3.038000000    -3.045000000
C     5.847000000    -1.789000000    -2.502000000
H     5.721000000    -1.654000000    -1.431000000
C     5.754000000    -3.167000000    -4.452000000
H     5.576000000    -4.163000000    -4.851000000
C     6.113000000    -2.041000000    -5.281000000
H     6.289000000    -2.121000000    -6.351000000
C     6.422000000    -0.864000000    -4.627000000
H     6.788000000    -0.063000000    -5.265000000
C     6.267000000    -0.716000000    -3.240000000
O     6.551000000     0.406000000    -2.488000000
C     5.583000000     1.315000000    -2.115000000
C     6.017000000     2.435000000    -1.402000000
H     7.061000000     2.524000000    -1.113000000
C     5.145000000     3.441000000    -0.991000000
O     5.552000000     4.398000000    -0.054000000
C     4.716000000     5.197000000     0.784000000
C     3.851000000     4.659000000     1.729000000
H     3.851000000     3.582000000     1.877000000
C     4.802000000     6.565000000     0.745000000
H     5.566000000     7.093000000     0.180000000
C     4.029000000     7.381000000     1.589000000
H     4.262000000     8.440000000     1.674000000
C     3.220000000     6.792000000     2.554000000
H     2.633000000     7.463000000     3.176000000
C     3.114000000     5.404000000     2.613000000
O     2.471000000     4.812000000     3.711000000
C     1.148000000     4.562000000     3.719000000
C     0.678000000     4.151000000     4.979000000
H     1.373000000     4.315000000     5.798000000
C    -0.579000000     3.591000000     5.136000000
O    -0.966000000     3.165000000     6.367000000
C    -1.849000000     2.109000000     6.499000000
C    -1.383000000     0.836000000     6.337000000
H    -0.332000000     0.611000000     6.177000000
C    -3.172000000     2.313000000     6.918000000
H    -3.598000000     3.310000000     7.003000000
C    -4.072000000     1.268000000     7.055000000
H    -5.073000000     1.458000000     7.435000000
C    -3.630000000    -0.030000000     6.859000000
H    -4.304000000    -0.844000000     7.116000000
C    -2.295000000    -0.234000000     6.439000000
O    -1.839000000    -1.536000000     6.301000000
C    -2.118000000    -2.312000000     5.212000000
C    -1.586000000    -3.628000000     5.151000000
H    -1.091000000    -3.990000000     6.048000000
C    -1.768000000    -4.370000000     4.003000000
O    -1.447000000    -5.751000000     3.974000000
C    -1.022000000    -6.292000000     2.783000000
C    -1.757000000    -7.254000000     2.107000000
H    -2.738000000    -7.492000000     2.510000000
C    -1.262000000    -7.923000000     0.980000000
H    -1.912000000    -8.642000000     0.487000000
C    -0.040000000    -7.542000000     0.443000000
H     0.266000000    -7.892000000    -0.540000000
C     0.718000000    -6.639000000     1.114000000
C     0.253000000    -6.024000000     2.294000000
H     0.869000000    -5.294000000     2.813000000
C     2.470000000     0.049000000     0.106000000
H     3.468000000    -0.222000000    -0.228000000
C     1.315000000    -0.202000000    -0.640000000
H     1.445000000    -0.674000000    -1.610000000
C     0.074000000     0.154000000    -0.216000000
C    -1.133000000     0.038000000    -1.085000000
H    -1.245000000    -0.949000000    -1.540000000
H    -2.029000000     0.224000000    -0.490000000
H    -1.165000000     0.798000000    -1.868000000
C    -0.072000000     0.602000000     1.118000000
H    -1.005000000     0.765000000     1.652000000
C     1.091000000     0.835000000     1.868000000
H     0.856000000     1.044000000     2.909000000
C     2.369000000     0.537000000     1.412000000
C     3.468000000     0.676000000     2.436000000
O     3.261000000     0.642000000     3.664000000
O     4.560000000     0.667000000     1.944000000
O     0.678000000    -2.365000000     1.861000000
H     1.332000000    -3.061000000     1.793000000
H     1.147000000    -1.570000000     1.608000000
O     6.353000000    -2.100000000     6.862000000
H     6.254000000    -1.329000000     6.304000000
H     5.499000000    -2.531000000     6.830000000
O     1.149000000    -2.480000000     6.825000000
H     0.546000000    -2.312000000     7.549000000
H     0.932000000    -1.814000000     6.172000000
O     5.576000000    -0.330000000     4.883000000
H     4.817000000     0.058000000     4.447000000
H     6.312000000     0.222000000     4.619000000
O     6.314000000     3.923000000     4.749000000
H     5.959000000     4.809000000     4.816000000
H     5.545000000     3.364000000     4.636000000
O     2.511000000    -3.816000000     4.382000000
H     2.261000000    -4.679000000     4.712000000
H     2.178000000    -3.203000000     5.037000000
O     8.350000000     4.215000000     3.176000000
H     7.425000000     4.198000000     3.420000000
H     8.388000000     4.806000000     2.424000000
O     2.578000000     2.489000000     7.455000000
H     1.842000000     2.215000000     8.002000000
H     2.957000000     3.235000000     7.918000000
O     6.362000000    -2.921000000     3.602000000
H     6.150000000    -2.189000000     4.181000000
H     6.450000000    -2.524000000     2.735000000
O     3.883000000     0.029000000     7.385000000
H     3.293000000     0.767000000     7.541000000
H     3.984000000     0.001000000     6.434000000
O     1.039000000    -0.891000000     4.787000000
H     1.725000000    -0.385000000     4.351000000
H     0.516000000    -1.251000000     4.071000000
O     8.977000000     0.666000000     0.738000000
H     9.601000000     1.225000000     1.200000000
H     8.129000000     1.084000000     0.881000000
O     7.838000000    -1.718000000    -0.087000000
H     8.085000000    -0.794000000    -0.118000000
H     7.002000000    -1.727000000     0.380000000
O     5.593000000    -1.561000000     1.282000000
H     5.202000000    -0.738000000     1.573000000
H     4.881000000    -2.198000000     1.337000000
O     3.985000000    -3.420000000     2.217000000
H     4.787000000    -3.694000000     2.662000000
H     3.303000000    -3.498000000     2.884000000
O     6.764000000     1.837000000     1.521000000
H     5.939000000     1.366000000     1.642000000
H     6.538000000     2.572000000     0.951000000
O     7.518000000     1.464000000     4.314000000
H     7.306000000     1.527000000     3.383000000
H     7.341000000     2.338000000     4.660000000
O     5.689000000     2.105000000     7.221000000
H     5.307000000     1.234000000     7.330000000
H     5.484000000     2.345000000     6.318000000
O     4.002000000     2.657000000     5.019000000
H     3.515000000     1.996000000     4.527000000
H     3.440000000     2.860000000     5.767000000
