218
-1468.60782
C     3.929000000     2.785000000    -1.262000000
H     3.063000000     3.441000000    -1.299000000
C     3.844000000     1.632000000    -2.044000000
C     4.729000000     0.567000000    -1.722000000
H     4.579000000    -0.390000000    -2.216000000
C     2.523000000     1.404000000    -2.909000000
O     2.053000000     2.604000000    -3.542000000
H     1.786000000     1.111000000    -2.147000000
O     2.788000000     0.441000000    -3.935000000
C     1.812000000    -0.506000000    -4.206000000
C     1.992000000    -1.753000000    -3.561000000
H     2.977000000    -2.045000000    -3.208000000
C     0.993000000    -2.644000000    -3.551000000
O     1.242000000    -3.894000000    -2.911000000
C    -0.192000000    -2.371000000    -4.183000000
C    -1.317000000    -3.348000000    -4.257000000
H    -2.024000000    -3.056000000    -5.036000000
C    -2.125000000    -3.250000000    -2.923000000
C    -3.194000000    -2.378000000    -2.927000000
H    -3.523000000    -1.807000000    -3.792000000
H    -1.014000000    -4.386000000    -4.410000000
C    -0.475000000    -1.085000000    -4.701000000
H    -1.427000000    -0.932000000    -5.202000000
C     0.590000000    -0.119000000    -4.694000000
C     0.354000000     1.196000000    -5.270000000
H    -0.373000000     1.271000000    -6.081000000
H     1.231000000     1.611000000    -5.771000000
C    -0.249000000     2.173000000    -4.278000000
C    -1.625000000     2.413000000    -4.144000000
H    -2.361000000     1.847000000    -4.709000000
C     0.650000000     2.823000000    -3.438000000
C     0.125000000     3.636000000    -2.430000000
H     0.827000000     4.004000000    -1.686000000
C    -1.200000000     4.052000000    -2.386000000
O    -1.607000000     4.855000000    -1.392000000
C    -1.963000000     4.210000000    -0.154000000
C    -1.332000000     4.892000000     1.090000000
C    -1.740000000     4.622000000     2.391000000
H    -2.549000000     3.923000000     2.589000000
C    -0.250000000     5.738000000     0.929000000
H     0.163000000     5.915000000    -0.061000000
O    -3.387000000     4.032000000    -0.060000000
H    -1.542000000     3.195000000    -0.201000000
C    -2.111000000     3.386000000    -3.234000000
C    -3.618000000     3.539000000    -2.966000000
H    -4.216000000     3.352000000    -3.860000000
H    -3.885000000     4.567000000    -2.711000000
C    -3.997000000     2.534000000    -1.871000000
C    -4.496000000     1.272000000    -2.215000000
H    -4.518000000     0.914000000    -3.241000000
C    -3.820000000     2.794000000    -0.510000000
C    -4.181000000     1.876000000     0.452000000
H    -4.047000000     2.138000000     1.498000000
C    -4.440000000     0.545000000     0.053000000
O    -4.516000000    -0.318000000     1.068000000
C    -3.555000000    -1.380000000     1.188000000
C    -3.145000000    -1.674000000     2.672000000
C    -2.733000000    -0.622000000     3.513000000
H    -2.921000000     0.398000000     3.190000000
C    -3.025000000    -2.996000000     3.105000000
H    -3.285000000    -3.849000000     2.483000000
O    -4.074000000    -2.543000000     0.626000000
H    -2.609000000    -1.070000000     0.721000000
C    -4.556000000     0.192000000    -1.301000000
C    -4.980000000    -1.179000000    -1.770000000
H    -5.509000000    -1.104000000    -2.722000000
H    -5.802000000    -1.496000000    -1.125000000
C    -3.988000000    -2.219000000    -1.802000000
C    -3.650000000    -2.904000000    -0.606000000
C    -2.607000000    -3.745000000    -0.615000000
H    -2.301000000    -4.301000000     0.268000000
C    -1.779000000    -3.912000000    -1.792000000
O    -0.619000000    -4.674000000    -1.632000000
C     0.655000000    -4.010000000    -1.554000000
H     0.530000000    -2.977000000    -1.196000000
C     1.503000000    -4.772000000    -0.591000000
C     2.911000000    -4.541000000    -0.619000000
H     3.312000000    -4.034000000    -1.493000000
C     0.905000000    -5.614000000     0.396000000
H    -0.164000000    -5.809000000     0.400000000
C     1.746000000    -6.001000000     1.511000000
O     1.250000000    -6.695000000     2.592000000
C     3.127000000    -5.787000000     1.456000000
H     3.824000000    -6.252000000     2.149000000
C     3.708000000    -5.079000000     0.375000000
O     5.078000000    -4.808000000     0.440000000
C     5.703000000    -3.887000000    -0.313000000
C     5.799000000    -2.571000000     0.117000000
H     5.519000000    -2.269000000     1.123000000
C     6.198000000    -4.293000000    -1.601000000
H     6.088000000    -5.297000000    -2.003000000
C     6.584000000    -3.284000000    -2.472000000
H     6.886000000    -3.510000000    -3.492000000
C     6.637000000    -1.969000000    -2.066000000
H     7.112000000    -1.290000000    -2.769000000
C     6.169000000    -1.573000000    -0.783000000
O     6.391000000    -0.319000000    -0.300000000
C     5.656000000     0.743000000    -0.678000000
C     5.717000000     1.918000000     0.003000000
H     6.349000000     2.046000000     0.878000000
C     4.875000000     2.992000000    -0.267000000
O     4.887000000     4.014000000     0.653000000
C     4.416000000     5.297000000     0.574000000
C     3.252000000     5.540000000     1.299000000
H     2.699000000     4.763000000     1.821000000
C     5.016000000     6.349000000    -0.201000000
H     6.035000000     6.203000000    -0.552000000
C     4.443000000     7.562000000    -0.290000000
H     4.886000000     8.315000000    -0.938000000
C     3.195000000     7.786000000     0.389000000
H     2.653000000     8.724000000     0.305000000
C     2.593000000     6.824000000     1.146000000
O     1.439000000     7.136000000     1.849000000
C     0.344000000     6.326000000     2.031000000
C    -0.113000000     6.142000000     3.299000000
H     0.259000000     6.674000000     4.171000000
C    -1.155000000     5.243000000     3.487000000
O    -1.367000000     4.858000000     4.788000000
C    -2.165000000     3.775000000     5.019000000
C    -1.653000000     2.473000000     5.191000000
H    -0.576000000     2.332000000     5.139000000
C    -3.516000000     4.035000000     5.100000000
H    -3.842000000     5.071000000     5.064000000
C    -4.402000000     2.992000000     5.427000000
H    -5.461000000     3.231000000     5.381000000
C    -3.894000000     1.708000000     5.575000000
H    -4.668000000     0.951000000     5.671000000
C    -2.518000000     1.413000000     5.408000000
O    -2.033000000     0.125000000     5.618000000
C    -2.390000000    -0.897000000     4.787000000
C    -2.109000000    -2.225000000     5.225000000
H    -1.817000000    -2.430000000     6.252000000
C    -2.503000000    -3.247000000     4.382000000
O    -2.347000000    -4.540000000     4.844000000
C    -1.910000000    -5.509000000     4.023000000
C    -2.753000000    -6.565000000     3.568000000
H    -3.822000000    -6.403000000     3.684000000
C    -2.250000000    -7.624000000     2.726000000
H    -2.852000000    -8.495000000     2.481000000
C    -0.868000000    -7.632000000     2.495000000
H    -0.559000000    -8.501000000     1.920000000
C    -0.071000000    -6.612000000     2.966000000
C    -0.499000000    -5.557000000     3.774000000
H     0.110000000    -4.679000000     3.972000000
C     2.611000000     0.030000000     1.282000000
H     3.590000000    -0.439000000     1.223000000
C     1.665000000    -0.278000000     0.326000000
H     1.844000000    -0.979000000    -0.486000000
C     0.449000000     0.446000000     0.166000000
C    -0.495000000     0.321000000    -0.970000000
H    -0.044000000    -0.377000000    -1.678000000
H    -1.489000000    -0.093000000    -0.786000000
H    -0.663000000     1.257000000    -1.507000000
C     0.242000000     1.395000000     1.163000000
H    -0.681000000     1.964000000     1.074000000
C     1.116000000     1.604000000     2.264000000
H     0.919000000     2.403000000     2.974000000
C     2.406000000     1.064000000     2.222000000
C     3.487000000     1.461000000     3.285000000
O     3.278000000     2.339000000     4.095000000
O     4.408000000     0.714000000     3.411000000
O     1.649000000    -2.290000000     2.830000000
H     1.486000000    -1.611000000     2.176000000
H     1.299000000    -1.928000000     3.644000000
O     3.294000000    -4.093000000     5.111000000
H     3.905000000    -3.585000000     4.577000000
H     2.733000000    -3.436000000     5.522000000
O     5.462000000     0.956000000     8.498000000
H     4.732000000     1.219000000     9.058000000
H     5.051000000     0.705000000     7.670000000
O     6.877000000     5.867000000     5.206000000
H     7.148000000     5.335000000     5.954000000
H     6.625000000     5.229000000     4.538000000
O     3.028000000     5.979000000     7.390000000
H     3.213000000     5.444000000     6.618000000
H     3.881000000     6.103000000     7.806000000
O     8.186000000     5.837000000     2.261000000
H     7.752000000     6.483000000     2.818000000
H     7.562000000     5.115000000     2.199000000
O     1.047000000    -0.729000000     5.214000000
H     1.205000000    -1.353000000     5.923000000
H     1.134000000     0.130000000     5.628000000
O     1.762000000     2.091000000     6.418000000
H     2.207000000     2.129000000     5.572000000
H     2.384000000     1.648000000     6.996000000
O     8.283000000     3.397000000     6.136000000
H     8.474000000     3.014000000     6.992000000
H     8.594000000     2.745000000     5.507000000
O     1.845000000     3.727000000     8.495000000
H     2.222000000     4.586000000     8.305000000
H     1.745000000     3.314000000     7.637000000
O     3.443000000     4.975000000     4.709000000
H     3.394000000     4.057000000     4.445000000
H     4.340000000     5.238000000     4.500000000
O     2.183000000     0.948000000     9.046000000
H     1.676000000     1.633000000     8.609000000
H     2.476000000     1.351000000     9.863000000
O     4.312000000     0.404000000     6.129000000
H     4.038000000    -0.489000000     5.918000000
H     4.303000000     0.862000000     5.289000000
O     9.819000000     2.011000000     3.998000000
H     9.061000000     1.427000000     3.988000000
H    10.220000000     1.898000000     3.136000000
O     4.219000000    -1.912000000     3.738000000
H     3.394000000    -2.122000000     3.300000000
H     4.358000000    -0.983000000     3.552000000
O     6.967000000     0.969000000     3.982000000
H     6.172000000     0.785000000     3.482000000
H     6.729000000     0.779000000     4.889000000
O     6.005000000     4.168000000     3.567000000
H     5.509000000     4.012000000     2.763000000
H     6.440000000     3.335000000     3.746000000
O     7.786000000    -0.056000000     6.892000000
H     7.295000000     0.597000000     7.392000000
H     7.188000000    -0.800000000     6.818000000
O     6.304000000    -3.547000000     3.380000000
H     6.873000000    -3.173000000     2.707000000
H     5.543000000    -2.967000000     3.400000000
