218
-1471.12985
C     4.091000000     3.345000000    -1.867000000
H     3.463000000     4.232000000    -1.845000000
C     3.635000000     2.275000000    -2.655000000
C     4.392000000     1.152000000    -2.765000000
H     4.018000000     0.238000000    -3.219000000
C     2.237000000     2.262000000    -3.137000000
O     1.670000000     3.555000000    -3.268000000
H     1.636000000     1.671000000    -2.430000000
O     2.184000000     1.515000000    -4.412000000
C     1.070000000     0.744000000    -4.683000000
C     1.237000000    -0.636000000    -4.571000000
H     2.217000000    -1.062000000    -4.372000000
C     0.103000000    -1.479000000    -4.437000000
O     0.330000000    -2.826000000    -4.098000000
C    -1.170000000    -0.994000000    -4.696000000
C    -2.422000000    -1.956000000    -4.651000000
H    -3.153000000    -1.460000000    -5.293000000
C    -2.970000000    -2.235000000    -3.252000000
C    -4.016000000    -1.454000000    -2.707000000
H    -4.440000000    -0.658000000    -3.315000000
H    -2.078000000    -2.832000000    -5.204000000
C    -1.351000000     0.420000000    -4.907000000
H    -2.337000000     0.863000000    -5.019000000
C    -0.229000000     1.289000000    -4.853000000
C    -0.497000000     2.791000000    -4.946000000
H    -1.466000000     2.920000000    -5.433000000
H     0.291000000     3.261000000    -5.537000000
C    -0.693000000     3.416000000    -3.556000000
C    -1.967000000     3.549000000    -2.983000000
H    -2.896000000     3.377000000    -3.520000000
C     0.400000000     3.763000000    -2.808000000
C     0.236000000     4.303000000    -1.505000000
H     1.157000000     4.535000000    -0.975000000
C    -1.079000000     4.378000000    -0.912000000
O    -1.124000000     4.725000000     0.433000000
C    -1.427000000     3.687000000     1.318000000
C    -0.698000000     3.801000000     2.617000000
C    -1.316000000     3.531000000     3.852000000
H    -2.352000000     3.221000000     3.958000000
C     0.698000000     4.153000000     2.526000000
H     1.035000000     4.421000000     1.528000000
O    -2.830000000     3.594000000     1.581000000
H    -1.079000000     2.734000000     0.894000000
C    -2.180000000     3.958000000    -1.700000000
C    -3.620000000     3.994000000    -1.174000000
H    -4.432000000     3.953000000    -1.903000000
H    -3.779000000     4.828000000    -0.487000000
C    -3.957000000     2.700000000    -0.431000000
C    -4.553000000     1.610000000    -1.026000000
H    -4.582000000     1.545000000    -2.110000000
C    -3.657000000     2.631000000     0.967000000
C    -3.937000000     1.473000000     1.696000000
H    -3.607000000     1.463000000     2.731000000
C    -4.575000000     0.377000000     1.141000000
O    -4.614000000    -0.829000000     1.759000000
C    -3.497000000    -1.736000000     1.520000000
C    -2.850000000    -2.280000000     2.791000000
C    -2.941000000    -1.563000000     3.953000000
H    -3.531000000    -0.653000000     4.020000000
C    -2.014000000    -3.372000000     2.735000000
H    -1.846000000    -3.863000000     1.780000000
O    -4.060000000    -2.815000000     0.703000000
H    -2.627000000    -1.273000000     1.034000000
C    -4.865000000     0.429000000    -0.295000000
C    -5.599000000    -0.718000000    -0.965000000
H    -6.174000000    -0.302000000    -1.795000000
H    -6.330000000    -1.236000000    -0.340000000
C    -4.527000000    -1.702000000    -1.451000000
C    -3.855000000    -2.701000000    -0.684000000
C    -2.950000000    -3.599000000    -1.215000000
H    -2.447000000    -4.303000000    -0.557000000
C    -2.405000000    -3.216000000    -2.449000000
O    -1.374000000    -3.942000000    -2.918000000
C    -0.069000000    -3.303000000    -2.781000000
H    -0.150000000    -2.455000000    -2.085000000
C     1.037000000    -4.222000000    -2.198000000
C     2.351000000    -3.903000000    -2.429000000
H     2.608000000    -3.073000000    -3.082000000
C     0.721000000    -5.262000000    -1.393000000
H    -0.279000000    -5.488000000    -1.032000000
C     1.730000000    -6.069000000    -0.856000000
O     1.452000000    -7.124000000    -0.037000000
C     3.063000000    -5.747000000    -1.041000000
H     3.827000000    -6.260000000    -0.462000000
C     3.371000000    -4.689000000    -1.871000000
O     4.742000000    -4.362000000    -2.072000000
C     5.248000000    -3.298000000    -2.758000000
C     5.659000000    -2.152000000    -2.141000000
H     5.521000000    -2.142000000    -1.063000000
C     5.508000000    -3.524000000    -4.100000000
H     5.132000000    -4.362000000    -4.681000000
C     6.157000000    -2.506000000    -4.845000000
H     6.242000000    -2.581000000    -5.926000000
C     6.436000000    -1.292000000    -4.257000000
H     6.753000000    -0.437000000    -4.850000000
C     6.277000000    -1.156000000    -2.903000000
O     6.584000000     0.041000000    -2.358000000
C     5.668000000     1.132000000    -2.179000000
C     6.147000000     2.224000000    -1.381000000
H     7.074000000     2.215000000    -0.813000000
C     5.312000000     3.320000000    -1.183000000
O     5.570000000     4.291000000    -0.283000000
C     4.593000000     4.959000000     0.502000000
C     3.964000000     4.376000000     1.627000000
H     4.174000000     3.331000000     1.842000000
C     4.504000000     6.342000000     0.296000000
H     4.875000000     6.752000000    -0.640000000
C     3.705000000     7.153000000     1.143000000
H     3.527000000     8.173000000     0.811000000
C     3.122000000     6.570000000     2.260000000
H     2.359000000     7.162000000     2.758000000
C     3.302000000     5.186000000     2.539000000
O     2.703000000     4.733000000     3.724000000
C     1.425000000     4.316000000     3.717000000
C     0.906000000     3.858000000     4.876000000
H     1.554000000     3.820000000     5.748000000
C    -0.470000000     3.539000000     4.988000000
O    -0.948000000     3.262000000     6.262000000
C    -1.876000000     2.252000000     6.579000000
C    -1.849000000     0.944000000     6.092000000
H    -1.089000000     0.565000000     5.414000000
C    -2.733000000     2.540000000     7.622000000
H    -2.929000000     3.593000000     7.807000000
C    -3.532000000     1.589000000     8.271000000
H    -4.180000000     1.963000000     9.059000000
C    -3.522000000     0.316000000     7.721000000
H    -4.067000000    -0.482000000     8.219000000
C    -2.708000000    -0.002000000     6.613000000
O    -2.536000000    -1.347000000     6.410000000
C    -2.333000000    -2.002000000     5.145000000
C    -1.503000000    -3.108000000     5.069000000
H    -0.985000000    -3.508000000     5.937000000
C    -1.305000000    -3.795000000     3.849000000
O    -0.438000000    -4.796000000     3.780000000
C    -0.473000000    -5.884000000     2.969000000
C    -1.474000000    -6.811000000     3.060000000
H    -1.986000000    -6.848000000     4.018000000
C    -1.555000000    -7.883000000     2.139000000
H    -2.091000000    -8.780000000     2.439000000
C    -0.644000000    -7.901000000     1.106000000
H    -0.657000000    -8.684000000     0.352000000
C     0.438000000    -6.994000000     0.941000000
C     0.518000000    -5.976000000     1.957000000
H     1.341000000    -5.268000000     1.902000000
C     2.830000000     0.050000000     0.957000000
H     3.872000000    -0.151000000     0.721000000
C     1.786000000    -0.215000000     0.021000000
H     2.078000000    -0.569000000    -0.964000000
C     0.435000000    -0.031000000     0.371000000
C    -0.664000000     0.068000000    -0.687000000
H    -1.381000000    -0.751000000    -0.599000000
H    -1.167000000     1.001000000    -0.425000000
H    -0.219000000     0.120000000    -1.682000000
C     0.198000000     0.320000000     1.718000000
H    -0.834000000     0.542000000     1.978000000
C     1.201000000     0.418000000     2.683000000
H     1.014000000     0.524000000     3.749000000
C     2.511000000     0.289000000     2.315000000
C     3.520000000     0.132000000     3.423000000
O     3.123000000     0.090000000     4.607000000
O     4.682000000     0.456000000     3.171000000
O     3.416000000    -3.235000000     1.921000000
H     3.136000000    -3.043000000     2.816000000
H     2.628000000    -3.112000000     1.392000000
O     4.213000000    -5.696000000     4.196000000
H     3.430000000    -5.317000000     4.595000000
H     4.830000000    -4.966000000     4.139000000
O     0.868000000    -1.142000000     9.105000000
H     0.084000000    -0.667000000     8.829000000
H     1.554000000    -0.837000000     8.511000000
O     6.037000000    -0.743000000     5.171000000
H     5.559000000    -0.185000000     4.557000000
H     5.986000000    -0.278000000     6.006000000
O     5.074000000     5.038000000     5.354000000
H     4.529000000     5.489000000     4.708000000
H     4.725000000     4.147000000     5.382000000
O     2.285000000    -2.644000000     4.183000000
H     2.244000000    -3.271000000     4.906000000
H     2.568000000    -1.826000000     4.592000000
O     4.474000000    -0.589000000     9.316000000
H     4.202000000    -0.869000000    10.190000000
H     3.655000000    -0.389000000     8.863000000
O     8.564000000     0.826000000     5.290000000
H     7.674000000     1.153000000     5.421000000
H     8.547000000     0.426000000     4.420000000
O     5.733000000     0.939000000     7.118000000
H     5.301000000     0.480000000     7.839000000
H     6.263000000     1.611000000     7.546000000
O     1.157000000     2.114000000     7.686000000
H     1.832000000     2.745000000     7.933000000
H     0.430000000     2.651000000     7.371000000
O     9.188000000    -2.014000000     3.213000000
H     8.532000000    -1.749000000     2.569000000
H     9.261000000    -2.962000000     3.104000000
O     6.256000000    -3.344000000     4.465000000
H     6.325000000    -2.549000000     3.936000000
H     5.919000000    -3.043000000     5.308000000
O     2.466000000    -0.105000000     7.124000000
H     2.072000000     0.767000000     7.090000000
H     2.739000000    -0.279000000     6.223000000
O     7.798000000     0.657000000     2.485000000
H     7.277000000     1.340000000     2.905000000
H     7.155000000     0.107000000     2.037000000
O     5.909000000    -1.710000000     2.167000000
H     5.174000000    -2.301000000     2.004000000
H     5.502000000    -0.857000000     2.320000000
O     6.136000000     2.681000000     3.357000000
H     6.091000000     3.605000000     3.112000000
H     5.222000000     2.397000000     3.387000000
O     4.213000000     2.436000000     5.467000000
H     3.484000000     1.892000000     5.171000000
H     4.743000000     1.852000000     6.010000000
O     5.941000000    -4.696000000     1.406000000
H     5.070000000    -4.364000000     1.622000000
H     6.541000000    -4.119000000     1.879000000
O     2.463000000    -4.369000000     6.074000000
H     1.685000000    -4.172000000     6.595000000
H     3.197000000    -4.116000000     6.634000000
