218
-1477.46366
C     3.727000000     2.898000000    -2.419000000
H     3.051000000     3.734000000    -2.261000000
C     3.161000000     1.749000000    -2.960000000
C     3.914000000     0.566000000    -3.139000000
H     3.517000000    -0.359000000    -3.552000000
C     1.708000000     1.688000000    -3.309000000
O     1.219000000     3.068000000    -3.636000000
H     1.208000000     1.288000000    -2.415000000
O     1.431000000     0.879000000    -4.450000000
C     0.210000000     0.154000000    -4.511000000
C     0.359000000    -1.197000000    -4.192000000
H     1.341000000    -1.620000000    -3.997000000
C    -0.757000000    -2.003000000    -4.213000000
O    -0.473000000    -3.349000000    -3.897000000
C    -2.073000000    -1.496000000    -4.336000000
C    -3.167000000    -2.439000000    -3.989000000
H    -4.009000000    -2.236000000    -4.655000000
C    -3.437000000    -2.432000000    -2.461000000
C    -4.394000000    -1.638000000    -1.885000000
H    -5.002000000    -1.104000000    -2.610000000
H    -2.913000000    -3.452000000    -4.309000000
C    -2.219000000    -0.133000000    -4.630000000
H    -3.168000000     0.388000000    -4.536000000
C    -1.047000000     0.653000000    -4.692000000
C    -1.270000000     2.186000000    -4.859000000
H    -2.263000000     2.286000000    -5.303000000
H    -0.540000000     2.543000000    -5.588000000
C    -1.194000000     2.882000000    -3.509000000
C    -2.405000000     3.182000000    -2.854000000
H    -3.258000000     2.688000000    -3.311000000
C    -0.010000000     3.422000000    -3.061000000
C    -0.027000000     4.183000000    -1.890000000
H     0.892000000     4.626000000    -1.516000000
C    -1.213000000     4.261000000    -1.120000000
O    -1.131000000     4.695000000     0.149000000
C    -1.260000000     3.775000000     1.165000000
C    -0.170000000     3.961000000     2.234000000
C    -0.521000000     4.021000000     3.616000000
H    -1.554000000     3.748000000     3.817000000
C     1.177000000     4.109000000     1.894000000
H     1.444000000     4.104000000     0.841000000
O    -2.591000000     3.831000000     1.725000000
H    -1.086000000     2.791000000     0.704000000
C    -2.426000000     3.882000000    -1.653000000
C    -3.723000000     3.934000000    -0.905000000
H    -4.531000000     3.958000000    -1.639000000
H    -3.774000000     4.860000000    -0.328000000
C    -3.803000000     2.765000000     0.005000000
C    -4.577000000     1.675000000    -0.389000000
H    -4.910000000     1.476000000    -1.404000000
C    -3.431000000     2.832000000     1.374000000
C    -3.585000000     1.761000000     2.206000000
H    -3.091000000     1.794000000     3.174000000
C    -4.323000000     0.676000000     1.827000000
O    -4.166000000    -0.392000000     2.687000000
C    -3.186000000    -1.331000000     2.226000000
C    -2.354000000    -1.840000000     3.477000000
C    -2.229000000    -0.978000000     4.532000000
H    -2.724000000    -0.011000000     4.507000000
C    -1.553000000    -3.006000000     3.382000000
H    -1.336000000    -3.458000000     2.417000000
O    -3.921000000    -2.393000000     1.644000000
H    -2.458000000    -0.821000000     1.578000000
C    -4.797000000     0.639000000     0.536000000
C    -5.588000000    -0.629000000     0.089000000
H    -6.401000000    -0.370000000    -0.593000000
H    -6.121000000    -1.015000000     0.961000000
C    -4.609000000    -1.635000000    -0.538000000
C    -3.836000000    -2.494000000     0.274000000
C    -2.791000000    -3.285000000    -0.272000000
H    -2.084000000    -3.779000000     0.390000000
C    -2.655000000    -3.193000000    -1.647000000
O    -1.710000000    -4.137000000    -2.072000000
C    -0.421000000    -3.608000000    -2.486000000
H    -0.285000000    -2.626000000    -2.010000000
C     0.755000000    -4.493000000    -2.068000000
C     2.042000000    -4.384000000    -2.628000000
H     2.277000000    -3.650000000    -3.395000000
C     0.550000000    -5.351000000    -0.989000000
H    -0.423000000    -5.613000000    -0.581000000
C     1.609000000    -6.077000000    -0.519000000
O     1.464000000    -6.938000000     0.562000000
C     2.876000000    -6.027000000    -1.119000000
H     3.713000000    -6.568000000    -0.685000000
C     3.059000000    -5.159000000    -2.202000000
O     4.371000000    -4.942000000    -2.644000000
C     4.694000000    -3.850000000    -3.464000000
C     5.194000000    -2.694000000    -2.883000000
H     5.284000000    -2.685000000    -1.800000000
C     4.470000000    -3.809000000    -4.841000000
H     4.039000000    -4.697000000    -5.297000000
C     4.848000000    -2.714000000    -5.647000000
H     4.706000000    -2.780000000    -6.723000000
C     5.399000000    -1.593000000    -5.066000000
H     5.782000000    -0.731000000    -5.604000000
C     5.589000000    -1.595000000    -3.682000000
O     6.103000000    -0.430000000    -3.011000000
C     5.301000000     0.629000000    -2.930000000
C     5.836000000     1.799000000    -2.314000000
H     6.896000000     1.879000000    -2.089000000
C     5.044000000     2.924000000    -2.033000000
O     5.605000000     4.080000000    -1.649000000
C     5.087000000     4.821000000    -0.675000000
C     4.525000000     4.191000000     0.442000000
H     4.425000000     3.108000000     0.452000000
C     5.363000000     6.150000000    -0.706000000
H     5.865000000     6.601000000    -1.558000000
C     4.819000000     6.916000000     0.386000000
H     4.873000000     7.991000000     0.229000000
C     4.319000000     6.350000000     1.524000000
H     3.972000000     6.934000000     2.373000000
C     4.016000000     4.980000000     1.481000000
O     3.463000000     4.494000000     2.668000000
C     2.093000000     4.381000000     2.857000000
C     1.779000000     4.288000000     4.248000000
H     2.605000000     4.454000000     4.934000000
C     0.433000000     4.129000000     4.585000000
O     0.092000000     4.058000000     5.902000000
C    -0.919000000     3.198000000     6.370000000
C    -0.818000000     1.809000000     6.137000000
H     0.006000000     1.430000000     5.537000000
C    -1.985000000     3.661000000     7.134000000
H    -2.099000000     4.669000000     7.526000000
C    -3.044000000     2.756000000     7.486000000
H    -4.001000000     3.132000000     7.839000000
C    -2.869000000     1.361000000     7.275000000
H    -3.614000000     0.666000000     7.653000000
C    -1.750000000     0.867000000     6.646000000
O    -1.388000000    -0.463000000     6.690000000
C    -1.423000000    -1.318000000     5.662000000
C    -0.853000000    -2.615000000     5.649000000
H    -0.260000000    -2.841000000     6.531000000
C    -0.871000000    -3.438000000     4.521000000
O    -0.129000000    -4.658000000     4.493000000
C    -0.234000000    -5.661000000     3.591000000
C    -1.329000000    -6.485000000     3.589000000
H    -2.051000000    -6.330000000     4.387000000
C    -1.636000000    -7.349000000     2.506000000
H    -2.492000000    -8.016000000     2.575000000
C    -0.696000000    -7.344000000     1.489000000
H    -0.986000000    -8.038000000     0.705000000
C     0.494000000    -6.679000000     1.530000000
C     0.723000000    -5.756000000     2.568000000
H     1.601000000    -5.119000000     2.637000000
C     2.738000000     0.248000000     0.682000000
H     3.755000000     0.178000000     0.303000000
C     1.791000000    -0.034000000    -0.244000000
H     2.021000000    -0.319000000    -1.268000000
C     0.416000000     0.131000000     0.055000000
C    -0.705000000    -0.198000000    -0.893000000
H    -1.524000000     0.524000000    -0.890000000
H    -0.411000000    -0.185000000    -1.945000000
H    -1.051000000    -1.208000000    -0.667000000
C     0.082000000     0.425000000     1.388000000
H    -0.974000000     0.503000000     1.632000000
C     1.057000000     0.753000000     2.340000000
H     0.812000000     0.975000000     3.376000000
C     2.405000000     0.715000000     1.991000000
C     3.510000000     1.019000000     2.935000000
O     3.323000000     1.244000000     4.100000000
O     4.630000000     1.097000000     2.482000000
O     6.165000000     1.799000000     9.004000000
H     6.093000000     2.088000000     8.094000000
H     6.976000000     2.199000000     9.318000000
O     3.320000000    -3.683000000     1.173000000
H     3.040000000    -3.703000000     2.088000000
H     2.708000000    -3.081000000     0.748000000
O     6.669000000     3.146000000     6.768000000
H     6.292000000     2.985000000     5.903000000
H     6.499000000     4.073000000     6.935000000
O     6.158000000    -0.236000000     4.222000000
H     5.724000000     0.309000000     3.565000000
H     5.442000000    -0.686000000     4.670000000
O     5.760000000    -4.349000000     3.300000000
H     5.988000000    -4.963000000     3.998000000
H     4.848000000    -4.115000000     3.475000000
O     5.499000000     3.046000000     4.442000000
H     6.266000000     2.782000000     3.934000000
H     4.831000000     2.395000000     4.223000000
O     2.574000000     2.867000000     9.159000000
H     2.671000000     2.614000000     8.241000000
H     3.002000000     2.164000000     9.648000000
O     3.175000000    -3.763000000     4.038000000
H     2.930000000    -4.348000000     4.754000000
H     3.242000000    -2.900000000     4.446000000
O     7.544000000     2.580000000     2.961000000
H     6.913000000     2.248000000     2.323000000
H     7.964000000     1.795000000     3.313000000
O     4.885000000     5.790000000     5.461000000
H     4.899000000     4.979000000     4.953000000
H     5.078000000     5.516000000     6.357000000
O     8.815000000     0.067000000     2.908000000
H     9.128000000    -0.811000000     2.689000000
H     7.924000000    -0.071000000     3.231000000
O     3.771000000    -0.545000000     8.069000000
H     4.582000000    -1.013000000     7.870000000
H     4.004000000     0.045000000     8.786000000
O     8.660000000     3.578000000     0.687000000
H     9.271000000     3.217000000     0.044000000
H     8.038000000     2.869000000     0.851000000
O     3.797000000    -1.308000000     5.219000000
H     3.486000000    -0.451000000     4.927000000
H     3.849000000    -1.232000000     6.172000000
O     7.017000000    -2.429000000     0.716000000
H     6.504000000    -3.236000000     0.728000000
H     7.772000000    -2.615000000     1.274000000
O     8.049000000    -2.859000000     4.327000000
H     7.765000000    -1.945000000     4.298000000
H     7.288000000    -3.356000000     4.028000000
O     6.444000000     1.257000000     0.679000000
H     5.746000000     1.235000000     1.334000000
H     6.491000000     0.360000000     0.349000000
O     6.225000000    -1.664000000     7.607000000
H     6.278000000    -2.476000000     8.110000000
H     7.055000000    -1.622000000     7.131000000
O     3.036000000     2.078000000     6.567000000
H     3.086000000     2.027000000     5.612000000
H     3.161000000     1.176000000     6.862000000
