218
-1443.01452
C    -3.529000000    -1.563000000    -3.983000000
H    -3.651000000    -0.628000000    -4.523000000
C    -3.557000000    -1.595000000    -2.567000000
C    -3.502000000    -2.841000000    -2.013000000
H    -3.431000000    -2.954000000    -0.935000000
C    -3.777000000    -0.323000000    -1.744000000
O    -4.351000000     0.808000000    -2.548000000
H    -2.731000000    -0.168000000    -1.441000000
O    -4.627000000    -0.617000000    -0.614000000
C    -4.218000000    -0.005000000     0.579000000
C    -3.754000000    -0.868000000     1.462000000
H    -3.819000000    -1.914000000     1.175000000
C    -3.343000000    -0.388000000     2.660000000
O    -2.668000000    -1.268000000     3.463000000
C    -3.435000000     1.027000000     2.960000000
C    -2.904000000     1.478000000     4.292000000
H    -3.531000000     2.338000000     4.534000000
C    -1.395000000     1.819000000     4.280000000
C    -1.023000000     3.052000000     3.915000000
H    -1.692000000     3.885000000     3.713000000
H    -2.981000000     0.675000000     5.028000000
C    -3.908000000     1.922000000     1.998000000
H    -4.070000000     2.976000000     2.213000000
C    -4.339000000     1.389000000     0.790000000
C    -5.036000000     2.278000000    -0.185000000
H    -5.533000000     3.078000000     0.368000000
H    -5.938000000     1.785000000    -0.553000000
C    -3.983000000     2.754000000    -1.169000000
C    -3.287000000     3.920000000    -0.921000000
H    -3.591000000     4.447000000    -0.020000000
C    -3.766000000     2.056000000    -2.340000000
C    -2.795000000     2.438000000    -3.252000000
H    -2.639000000     1.866000000    -4.163000000
C    -2.018000000     3.541000000    -2.898000000
O    -0.915000000     3.756000000    -3.640000000
C     0.162000000     2.984000000    -3.012000000
C     0.881000000     1.965000000    -3.883000000
C     1.991000000     1.292000000    -3.333000000
H     2.316000000     1.486000000    -2.314000000
C     0.390000000     1.577000000    -5.151000000
H    -0.520000000     1.918000000    -5.638000000
O     1.090000000     4.051000000    -2.510000000
H    -0.193000000     2.443000000    -2.123000000
C    -2.262000000     4.360000000    -1.776000000
C    -1.316000000     5.480000000    -1.274000000
H    -1.854000000     6.196000000    -0.649000000
H    -1.012000000     6.067000000    -2.143000000
C    -0.054000000     4.863000000    -0.547000000
C    -0.099000000     5.015000000     0.884000000
H    -0.935000000     5.466000000     1.413000000
C     1.034000000     4.251000000    -1.182000000
C     2.111000000     3.765000000    -0.429000000
H     2.921000000     3.252000000    -0.940000000
C     2.137000000     3.887000000     0.931000000
O     3.220000000     3.290000000     1.566000000
C     2.980000000     2.165000000     2.385000000
C     4.229000000     1.246000000     2.386000000
C     4.993000000     1.098000000     1.208000000
H     4.778000000     1.622000000     0.280000000
C     4.478000000     0.329000000     3.437000000
H     3.870000000     0.390000000     4.337000000
O     2.636000000     2.473000000     3.750000000
H     2.059000000     1.796000000     1.911000000
C     0.993000000     4.435000000     1.584000000
C     0.888000000     4.548000000     3.091000000
H     0.373000000     5.444000000     3.442000000
H     1.878000000     4.754000000     3.505000000
C     0.377000000     3.328000000     3.859000000
C     1.334000000     2.351000000     4.127000000
C     0.955000000     1.107000000     4.506000000
H     1.714000000     0.337000000     4.622000000
C    -0.427000000     0.830000000     4.653000000
O    -0.770000000    -0.505000000     4.727000000
C    -1.200000000    -1.206000000     3.542000000
H    -0.770000000    -0.703000000     2.663000000
C    -0.521000000    -2.570000000     3.543000000
C    -1.039000000    -3.607000000     2.809000000
H    -1.976000000    -3.391000000     2.302000000
C     0.629000000    -2.895000000     4.240000000
H     1.137000000    -2.142000000     4.837000000
C     1.166000000    -4.165000000     4.384000000
O     2.339000000    -4.323000000     5.086000000
C     0.762000000    -5.090000000     3.405000000
H     1.394000000    -5.939000000     3.156000000
C    -0.392000000    -4.862000000     2.728000000
O    -0.894000000    -5.863000000     1.891000000
C    -2.029000000    -5.745000000     1.174000000
C    -2.049000000    -5.578000000    -0.183000000
H    -1.142000000    -5.628000000    -0.780000000
C    -3.234000000    -5.723000000     1.925000000
H    -3.191000000    -5.795000000     3.009000000
C    -4.448000000    -5.543000000     1.324000000
H    -5.407000000    -5.543000000     1.835000000
C    -4.471000000    -5.357000000    -0.018000000
H    -5.455000000    -5.144000000    -0.428000000
C    -3.268000000    -5.334000000    -0.781000000
O    -3.334000000    -5.155000000    -2.155000000
C    -3.489000000    -3.992000000    -2.776000000
C    -3.543000000    -3.948000000    -4.159000000
H    -3.560000000    -4.934000000    -4.615000000
C    -3.466000000    -2.705000000    -4.779000000
O    -3.461000000    -2.559000000    -6.103000000
C    -2.849000000    -1.537000000    -6.776000000
C    -1.487000000    -1.407000000    -6.627000000
H    -0.914000000    -2.006000000    -5.923000000
C    -3.568000000    -0.755000000    -7.677000000
H    -4.634000000    -0.922000000    -7.805000000
C    -2.958000000     0.328000000    -8.337000000
H    -3.649000000     0.927000000    -8.925000000
C    -1.621000000     0.615000000    -8.023000000
H    -1.196000000     1.509000000    -8.473000000
C    -0.865000000    -0.326000000    -7.289000000
O     0.435000000     0.082000000    -6.999000000
C     0.924000000     0.503000000    -5.763000000
C     2.108000000    -0.105000000    -5.317000000
H     2.532000000    -0.936000000    -5.875000000
C     2.549000000     0.191000000    -4.032000000
O     3.634000000    -0.595000000    -3.534000000
C     4.788000000     0.045000000    -3.084000000
C     5.281000000    -0.353000000    -1.859000000
H     4.975000000    -1.284000000    -1.390000000
C     5.261000000     1.169000000    -3.706000000
H     4.877000000     1.502000000    -4.667000000
C     6.322000000     1.853000000    -3.188000000
H     6.851000000     2.602000000    -3.772000000
C     6.843000000     1.362000000    -1.968000000
H     7.778000000     1.759000000    -1.580000000
C     6.237000000     0.338000000    -1.273000000
O     6.635000000    -0.108000000    -0.071000000
C     5.961000000     0.129000000     1.163000000
C     6.292000000    -0.621000000     2.240000000
H     7.124000000    -1.298000000     2.063000000
C     5.576000000    -0.507000000     3.434000000
O     5.940000000    -1.299000000     4.530000000
C     4.974000000    -1.837000000     5.283000000
C     5.115000000    -1.606000000     6.663000000
H     5.896000000    -0.958000000     7.052000000
C     4.292000000    -2.254000000     7.505000000
H     4.471000000    -2.224000000     8.577000000
C     3.361000000    -3.224000000     6.980000000
H     2.816000000    -3.838000000     7.692000000
C     3.191000000    -3.345000000     5.616000000
C     4.043000000    -2.704000000     4.720000000
H     3.996000000    -2.897000000     3.651000000
C     0.400000000    -1.861000000    -2.177000000
H     0.167000000    -2.123000000    -3.206000000
C    -0.169000000    -0.669000000    -1.630000000
H    -0.810000000    -0.113000000    -2.309000000
C     0.167000000    -0.280000000    -0.318000000
C    -0.451000000     0.956000000     0.309000000
H    -0.715000000     0.827000000     1.361000000
H     0.354000000     1.695000000     0.313000000
H    -1.289000000     1.318000000    -0.289000000
C     1.049000000    -1.104000000     0.386000000
H     1.338000000    -0.849000000     1.402000000
C     1.686000000    -2.256000000    -0.164000000
H     2.325000000    -2.956000000     0.367000000
C     1.366000000    -2.606000000    -1.520000000
C     1.842000000    -3.863000000    -2.189000000
O     2.644000000    -4.506000000    -1.518000000
O     1.573000000    -4.146000000    -3.361000000
O     0.827000000    -6.672000000    -2.719000000
H     1.215000000    -5.836000000    -2.458000000
H     1.044000000    -7.270000000    -2.005000000
O    -0.076000000    -5.459000000    -7.303000000
H    -0.232000000    -5.084000000    -6.437000000
H    -0.640000000    -6.232000000    -7.335000000
O    -0.826000000    -9.251000000    -0.700000000
H     0.035000000    -8.856000000    -0.839000000
H    -0.823000000    -9.515000000     0.220000000
O     4.729000000    -3.344000000    -0.209000000
H     4.329000000    -2.824000000     0.489000000
H     3.987000000    -3.727000000    -0.677000000
O     3.438000000    -3.012000000    -4.947000000
H     2.630000000    -3.395000000    -4.605000000
H     3.593000000    -2.247000000    -4.394000000
O    -0.464000000    -4.981000000    -4.713000000
H     0.364000000    -4.691000000    -4.330000000
H    -0.889000000    -5.481000000    -4.016000000
O     7.193000000    -4.758000000    -0.098000000
H     6.439000000    -4.169000000    -0.069000000
H     6.816000000    -5.633000000    -0.006000000
O     5.010000000    -6.061000000    -2.507000000
H     4.403000000    -5.503000000    -2.019000000
H     5.571000000    -5.447000000    -2.980000000
O     4.450000000    -5.042000000    -6.462000000
H     3.697000000    -5.471000000    -6.056000000
H     4.438000000    -4.152000000    -6.109000000
O     1.894000000    -8.573000000    -0.885000000
H     2.075000000    -7.770000000    -0.396000000
H     2.702000000    -8.746000000    -1.368000000
O     4.480000000    -5.857000000     2.370000000
H     4.780000000    -5.747000000     3.273000000
H     4.793000000    -6.726000000     2.118000000
O     6.451000000    -7.422000000    -0.635000000
H     5.916000000    -6.996000000    -1.305000000
H     6.966000000    -8.069000000    -1.115000000
O     0.737000000    -9.265000000    -3.746000000
H     0.787000000    -8.440000000    -4.230000000
H     0.038000000    -9.126000000    -3.108000000
O     2.141000000    -6.556000000    -5.331000000
H     1.375000000    -6.435000000    -5.892000000
H     1.835000000    -6.321000000    -4.455000000
O    -2.182000000    -8.239000000    -3.015000000
H    -2.937000000    -7.685000000    -2.811000000
H    -1.884000000    -8.559000000    -2.163000000
O     2.472000000    -6.342000000     0.539000000
H     3.047000000    -5.893000000     1.159000000
H     2.365000000    -5.721000000    -0.181000000
O     7.010000000    -2.368000000    -3.810000000
H     7.760000000    -2.904000000    -3.552000000
H     7.141000000    -1.536000000    -3.356000000
O     4.550000000    -7.633000000    -4.707000000
H     4.605000000    -7.100000000    -3.913000000
H     3.630000000    -7.578000000    -4.968000000
O     1.516000000    -2.910000000    -7.993000000
H     1.983000000    -3.328000000    -7.270000000
H     0.629000000    -3.267000000    -7.944000000
