218
-1483.64211
C     3.022000000     2.704000000    -1.522000000
H     2.371000000     3.408000000    -1.010000000
C     2.605000000     2.066000000    -2.700000000
C     3.473000000     1.233000000    -3.446000000
H     3.192000000     0.707000000    -4.355000000
C     1.162000000     2.311000000    -3.160000000
O     0.732000000     3.681000000    -3.190000000
H     0.567000000     1.848000000    -2.359000000
O     0.931000000     1.626000000    -4.454000000
C    -0.134000000     0.805000000    -4.497000000
C     0.183000000    -0.571000000    -4.526000000
H     1.246000000    -0.782000000    -4.618000000
C    -0.792000000    -1.541000000    -4.493000000
O    -0.385000000    -2.846000000    -4.241000000
C    -2.177000000    -1.195000000    -4.458000000
C    -3.317000000    -2.255000000    -4.114000000
H    -4.257000000    -1.985000000    -4.599000000
C    -3.396000000    -2.466000000    -2.599000000
C    -4.305000000    -1.667000000    -1.836000000
H    -4.951000000    -0.975000000    -2.370000000
H    -3.212000000    -3.248000000    -4.555000000
C    -2.518000000     0.193000000    -4.453000000
H    -3.535000000     0.527000000    -4.264000000
C    -1.492000000     1.155000000    -4.473000000
C    -1.844000000     2.652000000    -4.451000000
H    -2.896000000     2.696000000    -4.740000000
H    -1.216000000     3.220000000    -5.140000000
C    -1.706000000     3.315000000    -3.095000000
C    -2.845000000     3.429000000    -2.312000000
H    -3.770000000     3.050000000    -2.738000000
C    -0.498000000     3.876000000    -2.645000000
C    -0.455000000     4.450000000    -1.314000000
H     0.516000000     4.796000000    -0.966000000
C    -1.626000000     4.500000000    -0.490000000
O    -1.504000000     4.896000000     0.800000000
C    -1.281000000     3.865000000     1.777000000
C    -0.405000000     4.271000000     2.983000000
C    -0.729000000     3.923000000     4.310000000
H    -1.663000000     3.429000000     4.562000000
C     0.830000000     4.896000000     2.672000000
H     1.078000000     5.045000000     1.624000000
O    -2.568000000     3.520000000     2.290000000
H    -0.794000000     3.044000000     1.232000000
C    -2.809000000     4.021000000    -1.011000000
C    -4.121000000     3.883000000    -0.171000000
H    -4.955000000     3.933000000    -0.874000000
H    -4.216000000     4.737000000     0.503000000
C    -4.106000000     2.649000000     0.674000000
C    -4.726000000     1.524000000     0.159000000
H    -5.281000000     1.653000000    -0.767000000
C    -3.366000000     2.545000000     1.851000000
C    -3.328000000     1.391000000     2.583000000
H    -2.655000000     1.251000000     3.425000000
C    -4.070000000     0.239000000     2.175000000
O    -3.887000000    -0.982000000     2.834000000
C    -2.856000000    -1.874000000     2.308000000
C    -1.934000000    -2.389000000     3.390000000
C    -1.648000000    -1.630000000     4.506000000
H    -2.278000000    -0.746000000     4.555000000
C    -1.282000000    -3.580000000     3.145000000
H    -1.491000000    -4.152000000     2.245000000
O    -3.483000000    -2.956000000     1.533000000
H    -2.229000000    -1.385000000     1.548000000
C    -4.700000000     0.281000000     0.919000000
C    -5.400000000    -0.987000000     0.323000000
H    -6.216000000    -0.699000000    -0.342000000
H    -5.754000000    -1.664000000     1.103000000
C    -4.462000000    -1.851000000    -0.463000000
C    -3.591000000    -2.787000000     0.176000000
C    -2.627000000    -3.487000000    -0.555000000
H    -1.974000000    -4.160000000    -0.005000000
C    -2.534000000    -3.363000000    -1.972000000
O    -1.653000000    -4.089000000    -2.742000000
C    -0.384000000    -3.381000000    -2.919000000
H    -0.362000000    -2.483000000    -2.284000000
C     0.876000000    -4.251000000    -2.716000000
C     2.052000000    -3.931000000    -3.421000000
H     2.089000000    -3.133000000    -4.158000000
C     0.988000000    -5.150000000    -1.619000000
H     0.197000000    -5.300000000    -0.889000000
C     2.140000000    -5.952000000    -1.452000000
O     2.373000000    -6.754000000    -0.315000000
C     3.234000000    -5.699000000    -2.290000000
H     4.195000000    -6.172000000    -2.106000000
C     3.189000000    -4.714000000    -3.242000000
O     4.211000000    -4.531000000    -4.167000000
C     4.503000000    -3.280000000    -4.694000000
C     4.844000000    -2.197000000    -3.902000000
H     4.921000000    -2.446000000    -2.847000000
C     4.631000000    -3.079000000    -6.047000000
H     4.400000000    -3.903000000    -6.717000000
C     5.119000000    -1.907000000    -6.640000000
H     5.112000000    -1.787000000    -7.720000000
C     5.435000000    -0.847000000    -5.766000000
H     5.933000000     0.036000000    -6.157000000
C     5.151000000    -0.954000000    -4.388000000
O     5.580000000    -0.006000000    -3.494000000
C     4.729000000     0.958000000    -2.944000000
C     5.146000000     1.567000000    -1.799000000
H     6.109000000     1.436000000    -1.311000000
C     4.279000000     2.379000000    -1.094000000
O     4.673000000     2.939000000     0.106000000
C     4.346000000     4.183000000     0.550000000
C     3.893000000     4.358000000     1.866000000
H     3.671000000     3.499000000     2.494000000
C     4.488000000     5.319000000    -0.262000000
H     4.754000000     5.095000000    -1.292000000
C     4.279000000     6.614000000     0.241000000
H     4.418000000     7.465000000    -0.421000000
C     3.745000000     6.686000000     1.543000000
H     3.552000000     7.637000000     2.034000000
C     3.565000000     5.596000000     2.347000000
O     2.940000000     5.781000000     3.532000000
C     1.682000000     5.220000000     3.734000000
C     1.458000000     4.780000000     5.007000000
H     2.160000000     4.919000000     5.826000000
C     0.256000000     4.107000000     5.262000000
O     0.121000000     3.594000000     6.512000000
C    -0.658000000     2.476000000     6.756000000
C    -0.124000000     1.248000000     6.394000000
H     0.758000000     1.189000000     5.761000000
C    -1.737000000     2.533000000     7.603000000
H    -2.093000000     3.496000000     7.961000000
C    -2.452000000     1.381000000     7.753000000
H    -3.423000000     1.512000000     8.224000000
C    -2.045000000     0.203000000     7.287000000
H    -2.620000000    -0.677000000     7.561000000
C    -0.840000000     0.080000000     6.684000000
O    -0.256000000    -1.176000000     6.410000000
C    -0.650000000    -1.961000000     5.380000000
C     0.179000000    -3.074000000     5.061000000
H     1.063000000    -3.264000000     5.665000000
C    -0.226000000    -3.959000000     4.006000000
O     0.550000000    -5.125000000     3.933000000
C     0.533000000    -5.979000000     2.802000000
C    -0.631000000    -6.656000000     2.570000000
H    -1.341000000    -6.636000000     3.393000000
C    -0.763000000    -7.499000000     1.462000000
H    -1.661000000    -8.104000000     1.357000000
C     0.313000000    -7.510000000     0.566000000
H     0.240000000    -8.053000000    -0.373000000
C     1.376000000    -6.687000000     0.735000000
C     1.545000000    -5.906000000     1.904000000
H     2.275000000    -5.117000000     2.068000000
C     2.719000000    -0.278000000    -0.014000000
H     3.494000000    -0.660000000    -0.673000000
C     1.378000000    -0.193000000    -0.482000000
H     1.250000000    -0.567000000    -1.494000000
C     0.333000000     0.247000000     0.293000000
C    -1.095000000     0.186000000    -0.312000000
H    -1.772000000     0.465000000     0.498000000
H    -1.161000000     0.935000000    -1.105000000
H    -1.274000000    -0.783000000    -0.783000000
C     0.600000000     0.570000000     1.614000000
H    -0.189000000     0.919000000     2.276000000
C     1.912000000     0.628000000     2.034000000
H     2.139000000     0.957000000     3.045000000
C     2.978000000     0.177000000     1.268000000
C     4.418000000     0.043000000     1.783000000
O     4.742000000     0.348000000     2.937000000
O     5.189000000    -0.648000000     1.136000000
O     5.238000000    -0.411000000     7.305000000
H     5.448000000     0.195000000     8.015000000
H     6.074000000    -0.565000000     6.865000000
O     4.895000000    -3.107000000     1.967000000
H     5.187000000    -2.270000000     1.607000000
H     4.720000000    -2.923000000     2.889000000
O     5.091000000    -5.549000000     0.570000000
H     4.710000000    -4.697000000     0.781000000
H     5.576000000    -5.797000000     1.357000000
O     6.989000000     0.827000000     4.214000000
H     6.153000000     0.644000000     3.785000000
H     7.282000000     1.651000000     3.824000000
O     6.433000000    -4.217000000     5.493000000
H     6.005000000    -3.361000000     5.485000000
H     5.886000000    -4.763000000     4.929000000
O     6.022000000    -2.213000000    -0.778000000
H     5.761000000    -1.466000000    -0.239000000
H     6.540000000    -2.763000000    -0.190000000
O     3.759000000     1.999000000     5.026000000
H     4.166000000     1.404000000     4.396000000
H     4.284000000     2.798000000     4.974000000
O     1.862000000    -2.837000000     1.243000000
H     2.776000000    -2.861000000     1.525000000
H     1.777000000    -2.006000000     0.775000000
O     8.986000000     2.603000000    -0.283000000
H     8.458000000     1.893000000     0.081000000
H     9.446000000     2.971000000     0.472000000
O     9.648000000    -0.536000000     2.291000000
H     9.204000000    -1.217000000     2.796000000
H    10.414000000    -0.308000000     2.817000000
O     8.057000000    -0.808000000     6.244000000
H     7.860000000    -0.310000000     5.451000000
H     8.463000000    -0.171000000     6.832000000
O     8.768000000    -2.671000000     4.045000000
H     8.881000000    -3.621000000     4.089000000
H     8.758000000    -2.389000000     4.959000000
O     7.178000000     3.564000000     2.748000000
H     6.993000000     2.924000000     2.060000000
H     7.772000000     4.192000000     2.337000000
O     5.391000000     4.262000000     4.803000000
H     5.128000000     5.087000000     4.395000000
H     5.886000000     3.806000000     4.123000000
O     7.647000000     0.945000000     1.059000000
H     8.067000000     0.422000000     1.742000000
H     6.741000000     0.637000000     1.045000000
O    10.338000000    -0.661000000    -0.393000000
H     9.528000000    -1.003000000    -0.771000000
H    10.144000000    -0.561000000     0.539000000
O     5.014000000    -1.873000000     4.633000000
H     5.119000000    -1.728000000     5.573000000
H     5.142000000    -1.008000000     4.242000000
O     8.352000000    -3.367000000     0.795000000
H     8.274000000    -4.173000000     1.307000000
H     8.320000000    -2.666000000     1.446000000
O     8.087000000    -0.987000000    -2.107000000
H     7.550000000    -0.378000000    -2.615000000
H     7.453000000    -1.536000000    -1.645000000
