218
-1470.69629
C     3.536000000     2.933000000    -2.877000000
H     2.937000000     3.820000000    -3.066000000
C     3.003000000     1.676000000    -3.020000000
C     3.769000000     0.543000000    -2.744000000
H     3.442000000    -0.488000000    -2.842000000
C     1.541000000     1.466000000    -3.523000000
O     0.924000000     2.724000000    -3.989000000
H     0.977000000     1.019000000    -2.691000000
O     1.457000000     0.492000000    -4.635000000
C     0.299000000    -0.316000000    -4.611000000
C     0.576000000    -1.638000000    -4.276000000
H     1.605000000    -1.985000000    -4.320000000
C    -0.475000000    -2.482000000    -3.978000000
O    -0.085000000    -3.685000000    -3.424000000
C    -1.808000000    -2.118000000    -4.119000000
C    -2.971000000    -3.024000000    -3.666000000
H    -3.957000000    -2.759000000    -4.052000000
C    -3.160000000    -2.908000000    -2.193000000
C    -4.111000000    -2.045000000    -1.731000000
H    -4.611000000    -1.380000000    -2.430000000
H    -2.825000000    -4.069000000    -3.949000000
C    -2.065000000    -0.835000000    -4.585000000
H    -3.081000000    -0.455000000    -4.516000000
C    -1.090000000     0.061000000    -4.756000000
C    -1.513000000     1.468000000    -5.162000000
H    -2.520000000     1.610000000    -5.561000000
H    -0.780000000     1.761000000    -5.916000000
C    -1.496000000     2.439000000    -3.991000000
C    -2.633000000     2.801000000    -3.311000000
H    -3.526000000     2.352000000    -3.739000000
C    -0.347000000     3.131000000    -3.567000000
C    -0.399000000     4.021000000    -2.500000000
H     0.487000000     4.576000000    -2.203000000
C    -1.552000000     4.238000000    -1.773000000
O    -1.334000000     4.833000000    -0.581000000
C    -1.508000000     4.141000000     0.671000000
C    -0.465000000     4.548000000     1.724000000
C    -0.708000000     4.448000000     3.099000000
H    -1.713000000     4.281000000     3.479000000
C     0.846000000     4.895000000     1.320000000
H     1.062000000     5.167000000     0.290000000
O    -2.869000000     4.178000000     1.156000000
H    -1.240000000     3.087000000     0.506000000
C    -2.746000000     3.661000000    -2.161000000
C    -4.062000000     3.755000000    -1.435000000
H    -4.809000000     3.513000000    -2.194000000
H    -4.211000000     4.769000000    -1.059000000
C    -4.220000000     2.770000000    -0.267000000
C    -4.955000000     1.568000000    -0.350000000
H    -5.417000000     1.312000000    -1.300000000
C    -3.517000000     3.009000000     0.990000000
C    -3.573000000     2.034000000     1.982000000
H    -2.997000000     2.158000000     2.896000000
C    -4.152000000     0.791000000     1.772000000
O    -3.931000000    -0.217000000     2.743000000
C    -2.963000000    -1.313000000     2.444000000
C    -2.239000000    -1.758000000     3.676000000
C    -1.824000000    -0.698000000     4.493000000
H    -2.121000000     0.344000000     4.413000000
C    -1.787000000    -3.066000000     3.780000000
H    -2.056000000    -3.767000000     2.994000000
O    -3.655000000    -2.337000000     1.762000000
H    -2.230000000    -0.894000000     1.738000000
C    -4.809000000     0.532000000     0.573000000
C    -5.304000000    -0.866000000     0.166000000
H    -6.074000000    -0.755000000    -0.600000000
H    -5.712000000    -1.316000000     1.074000000
C    -4.295000000    -1.805000000    -0.381000000
C    -3.531000000    -2.600000000     0.474000000
C    -2.525000000    -3.473000000     0.020000000
H    -1.877000000    -4.092000000     0.635000000
C    -2.436000000    -3.739000000    -1.330000000
O    -1.421000000    -4.523000000    -1.774000000
C    -0.161000000    -3.840000000    -1.966000000
H    -0.200000000    -2.815000000    -1.567000000
C     1.026000000    -4.649000000    -1.358000000
C     2.317000000    -4.389000000    -1.911000000
H     2.507000000    -3.674000000    -2.707000000
C     0.835000000    -5.466000000    -0.265000000
H    -0.114000000    -5.407000000     0.261000000
C     1.872000000    -6.224000000     0.177000000
O     1.679000000    -7.023000000     1.288000000
C     3.095000000    -6.184000000    -0.431000000
H     3.922000000    -6.807000000    -0.097000000
C     3.350000000    -5.188000000    -1.376000000
O     4.665000000    -5.123000000    -1.776000000
C     5.098000000    -4.096000000    -2.516000000
C     5.394000000    -2.871000000    -1.904000000
H     5.402000000    -2.830000000    -0.817000000
C     4.932000000    -4.115000000    -3.891000000
H     4.672000000    -4.995000000    -4.473000000
C     5.181000000    -2.958000000    -4.610000000
H     4.975000000    -2.932000000    -5.677000000
C     5.667000000    -1.775000000    -3.991000000
H     5.863000000    -0.857000000    -4.539000000
C     5.665000000    -1.681000000    -2.630000000
O     5.807000000    -0.436000000    -1.961000000
C     5.042000000     0.656000000    -2.175000000
C     5.567000000     1.952000000    -2.040000000
H     6.574000000     2.113000000    -1.662000000
C     4.827000000     3.106000000    -2.360000000
O     5.224000000     4.439000000    -2.186000000
C     4.528000000     5.322000000    -1.385000000
C     4.291000000     4.993000000    -0.051000000
H     4.524000000     4.069000000     0.471000000
C     4.229000000     6.531000000    -1.964000000
H     4.502000000     6.825000000    -2.974000000
C     3.375000000     7.448000000    -1.192000000
H     3.061000000     8.430000000    -1.536000000
C     2.970000000     7.030000000     0.104000000
H     2.346000000     7.727000000     0.658000000
C     3.466000000     5.887000000     0.662000000
O     3.055000000     5.502000000     1.885000000
C     1.796000000     5.153000000     2.250000000
C     1.535000000     5.104000000     3.628000000
H     2.271000000     5.322000000     4.397000000
C     0.311000000     4.608000000     4.041000000
O     0.028000000     4.597000000     5.387000000
C    -0.713000000     3.590000000     5.949000000
C    -0.204000000     2.299000000     5.849000000
H     0.692000000     2.058000000     5.282000000
C    -1.914000000     3.805000000     6.610000000
H    -2.345000000     4.802000000     6.585000000
C    -2.651000000     2.738000000     7.077000000
H    -3.654000000     2.940000000     7.446000000
C    -2.149000000     1.426000000     6.954000000
H    -2.633000000     0.556000000     7.392000000
C    -0.919000000     1.245000000     6.393000000
O    -0.369000000    -0.020000000     6.303000000
C    -0.944000000    -0.966000000     5.538000000
C    -0.505000000    -2.267000000     5.760000000
H     0.321000000    -2.392000000     6.456000000
C    -0.889000000    -3.294000000     4.863000000
O    -0.195000000    -4.462000000     4.960000000
C    -0.168000000    -5.511000000     4.089000000
C    -1.194000000    -6.501000000     4.119000000
H    -1.893000000    -6.366000000     4.940000000
C    -1.287000000    -7.605000000     3.243000000
H    -2.123000000    -8.297000000     3.305000000
C    -0.280000000    -7.766000000     2.279000000
H    -0.367000000    -8.508000000     1.490000000
C     0.738000000    -6.782000000     2.191000000
C     0.824000000    -5.702000000     3.080000000
H     1.646000000    -5.032000000     2.842000000
C     2.462000000    -0.370000000     0.136000000
H     3.355000000    -0.719000000    -0.377000000
C     1.229000000    -0.361000000    -0.504000000
H     1.090000000    -0.925000000    -1.423000000
C     0.127000000     0.265000000     0.088000000
C    -1.174000000     0.307000000    -0.656000000
H    -1.550000000    -0.657000000    -1.006000000
H    -1.991000000     0.682000000    -0.036000000
H    -1.027000000     0.884000000    -1.572000000
C     0.352000000     0.925000000     1.282000000
H    -0.426000000     1.192000000     1.992000000
C     1.632000000     0.958000000     1.868000000
H     1.676000000     1.289000000     2.903000000
C     2.724000000     0.277000000     1.269000000
C     4.097000000     0.360000000     1.878000000
O     4.394000000     1.137000000     2.737000000
O     4.896000000    -0.558000000     1.701000000
O     5.767000000    -1.501000000     6.395000000
H     6.589000000    -1.794000000     6.788000000
H     5.092000000    -2.006000000     6.849000000
O     4.076000000    -3.094000000     2.332000000
H     4.450000000    -2.251000000     2.077000000
H     3.170000000    -2.894000000     2.565000000
O     8.802000000     3.153000000     0.184000000
H     9.413000000     3.524000000     0.820000000
H     7.940000000     3.275000000     0.582000000
O     6.608000000    -1.605000000     3.491000000
H     6.080000000    -2.193000000     4.032000000
H     5.967000000    -1.099000000     2.991000000
O     8.932000000    -3.070000000     3.630000000
H     8.435000000    -3.810000000     3.979000000
H     8.265000000    -2.453000000     3.330000000
O     7.272000000    -0.034000000     0.772000000
H     6.358000000    -0.235000000     0.974000000
H     7.639000000    -0.864000000     0.468000000
O     6.310000000    -4.795000000     1.406000000
H     5.703000000    -5.517000000     1.569000000
H     5.849000000    -4.019000000     1.724000000
O     3.186000000     2.723000000     4.455000000
H     2.694000000     3.440000000     4.056000000
H     3.481000000     2.193000000     3.714000000
O     1.682000000    -2.189000000     3.184000000
H     0.774000000    -2.342000000     3.444000000
H     1.924000000    -1.375000000     3.627000000
O     6.850000000     4.832000000     3.270000000
H     6.644000000     4.555000000     4.163000000
H     6.897000000     4.017000000     2.771000000
O     9.182000000     0.145000000     3.830000000
H     8.288000000    -0.173000000     3.699000000
H     9.084000000     1.088000000     3.963000000
O     2.479000000    -0.298000000     4.795000000
H     3.254000000     0.185000000     4.508000000
H     2.301000000     0.036000000     5.674000000
O     5.776000000     1.108000000     5.053000000
H     5.812000000     0.232000000     5.438000000
H     5.353000000     0.979000000     4.204000000
O     6.583000000     3.554000000     5.728000000
H     5.929000000     4.207000000     5.977000000
H     6.127000000     2.716000000     5.804000000
O     6.644000000     2.444000000     1.847000000
H     7.106000000     1.724000000     1.418000000
H     5.800000000     2.069000000     2.100000000
O     4.756000000    -4.466000000     4.647000000
H     4.470000000    -4.022000000     3.848000000
H     4.531000000    -5.385000000     4.503000000
O     2.584000000     1.572000000     6.870000000
H     2.867000000     2.081000000     6.110000000
H     3.328000000     1.607000000     7.471000000
O     8.748000000    -2.420000000     0.251000000
H     9.445000000    -2.532000000     0.898000000
H     8.347000000    -3.286000000     0.180000000
O     9.062000000     0.884000000    -1.451000000
H     8.913000000     1.761000000    -1.099000000
H     8.523000000     0.311000000    -0.905000000
