218
-1451.32866
C     2.947000000     3.733000000    -2.172000000
H     2.421000000     4.667000000    -1.993000000
C     2.244000000     2.649000000    -2.717000000
C     2.958000000     1.475000000    -2.932000000
H     2.448000000     0.611000000    -3.350000000
C     0.715000000     2.653000000    -2.965000000
O     0.133000000     3.954000000    -3.078000000
H     0.277000000     1.998000000    -2.198000000
O     0.572000000     1.972000000    -4.232000000
C    -0.464000000     1.131000000    -4.337000000
C    -0.245000000    -0.215000000    -4.671000000
H     0.774000000    -0.563000000    -4.816000000
C    -1.242000000    -1.209000000    -4.515000000
O    -0.924000000    -2.522000000    -4.461000000
C    -2.543000000    -0.794000000    -4.145000000
C    -3.624000000    -1.836000000    -3.873000000
H    -4.565000000    -1.449000000    -4.270000000
C    -3.728000000    -2.220000000    -2.448000000
C    -4.625000000    -1.590000000    -1.647000000
H    -5.366000000    -0.917000000    -2.070000000
H    -3.463000000    -2.728000000    -4.481000000
C    -2.877000000     0.612000000    -4.036000000
H    -3.878000000     0.862000000    -3.692000000
C    -1.838000000     1.554000000    -4.186000000
C    -2.261000000     3.054000000    -4.235000000
H    -3.251000000     3.152000000    -4.685000000
H    -1.569000000     3.653000000    -4.830000000
C    -2.219000000     3.605000000    -2.830000000
C    -3.267000000     3.398000000    -1.893000000
H    -4.186000000     2.914000000    -2.214000000
C    -1.001000000     4.116000000    -2.370000000
C    -0.918000000     4.657000000    -1.010000000
H     0.073000000     4.966000000    -0.688000000
C    -2.007000000     4.584000000    -0.142000000
O    -1.772000000     4.852000000     1.198000000
C    -1.462000000     3.622000000     1.909000000
C    -0.142000000     3.626000000     2.734000000
C     0.110000000     2.698000000     3.727000000
H    -0.650000000     1.977000000     4.017000000
C     0.812000000     4.592000000     2.436000000
H     0.682000000     5.295000000     1.617000000
O    -2.556000000     3.205000000     2.702000000
H    -1.233000000     2.811000000     1.201000000
C    -3.186000000     3.911000000    -0.566000000
C    -4.356000000     3.717000000     0.506000000
H    -5.235000000     3.829000000    -0.132000000
H    -4.333000000     4.483000000     1.284000000
C    -4.203000000     2.363000000     1.157000000
C    -4.957000000     1.310000000     0.728000000
H    -5.568000000     1.555000000    -0.136000000
C    -3.397000000     2.184000000     2.259000000
C    -3.413000000     1.002000000     2.975000000
H    -2.870000000     0.911000000     3.912000000
C    -4.166000000    -0.094000000     2.492000000
O    -3.899000000    -1.335000000     3.032000000
C    -2.957000000    -2.179000000     2.429000000
C    -2.023000000    -2.919000000     3.401000000
C    -1.652000000    -2.275000000     4.577000000
H    -2.072000000    -1.293000000     4.775000000
C    -1.627000000    -4.229000000     3.164000000
H    -1.982000000    -4.752000000     2.280000000
O    -3.716000000    -3.111000000     1.582000000
H    -2.318000000    -1.655000000     1.703000000
C    -4.871000000     0.021000000     1.278000000
C    -5.599000000    -1.146000000     0.612000000
H    -6.410000000    -0.821000000    -0.043000000
H    -6.187000000    -1.771000000     1.287000000
C    -4.633000000    -1.854000000    -0.244000000
C    -3.804000000    -2.864000000     0.230000000
C    -2.954000000    -3.558000000    -0.607000000
H    -2.226000000    -4.245000000    -0.182000000
C    -2.874000000    -3.227000000    -1.940000000
O    -1.916000000    -3.877000000    -2.687000000
C    -0.775000000    -3.080000000    -3.129000000
H    -0.785000000    -2.268000000    -2.387000000
C     0.561000000    -3.881000000    -2.944000000
C     1.649000000    -3.701000000    -3.839000000
H     1.545000000    -3.097000000    -4.737000000
C     0.761000000    -4.506000000    -1.689000000
H    -0.040000000    -4.656000000    -0.970000000
C     1.992000000    -5.130000000    -1.416000000
O     2.323000000    -5.611000000    -0.196000000
C     3.018000000    -5.097000000    -2.360000000
H     4.005000000    -5.456000000    -2.077000000
C     2.897000000    -4.335000000    -3.549000000
O     3.949000000    -4.211000000    -4.431000000
C     4.458000000    -2.929000000    -4.615000000
C     4.639000000    -2.028000000    -3.593000000
H     4.514000000    -2.352000000    -2.563000000
C     4.500000000    -2.563000000    -5.964000000
H     4.311000000    -3.343000000    -6.697000000
C     4.816000000    -1.252000000    -6.298000000
H     4.828000000    -1.001000000    -7.356000000
C     5.053000000    -0.344000000    -5.268000000
H     5.347000000     0.642000000    -5.620000000
C     4.917000000    -0.678000000    -3.935000000
O     4.993000000     0.253000000    -2.813000000
C     4.317000000     1.418000000    -2.764000000
C     5.012000000     2.483000000    -2.241000000
H     6.088000000     2.396000000    -2.120000000
C     4.313000000     3.650000000    -1.933000000
O     5.053000000     4.732000000    -1.442000000
C     4.720000000     5.536000000    -0.390000000
C     3.953000000     5.046000000     0.668000000
H     3.515000000     4.052000000     0.671000000
C     5.439000000     6.756000000    -0.311000000
H     6.181000000     7.002000000    -1.066000000
C     5.247000000     7.610000000     0.698000000
H     5.787000000     8.544000000     0.834000000
C     4.393000000     7.225000000     1.716000000
H     4.272000000     7.782000000     2.641000000
C     3.792000000     5.891000000     1.767000000
O     3.114000000     5.527000000     2.985000000
C     2.050000000     4.579000000     3.115000000
C     2.250000000     3.707000000     4.176000000
H     3.080000000     3.720000000     4.878000000
C     1.277000000     2.782000000     4.507000000
O     1.566000000     1.936000000     5.548000000
C     0.730000000     1.203000000     6.255000000
C     0.724000000    -0.173000000     6.064000000
H     1.384000000    -0.596000000     5.310000000
C    -0.109000000     1.808000000     7.102000000
H    -0.135000000     2.893000000     7.034000000
C    -1.053000000     1.028000000     7.828000000
H    -1.782000000     1.475000000     8.499000000
C    -1.089000000    -0.351000000     7.654000000
H    -1.947000000    -0.871000000     8.073000000
C    -0.223000000    -0.962000000     6.789000000
O    -0.239000000    -2.267000000     6.559000000
C    -0.681000000    -2.837000000     5.405000000
C    -0.169000000    -4.096000000     5.063000000
H     0.673000000    -4.593000000     5.537000000
C    -0.712000000    -4.743000000     3.915000000
O    -0.337000000    -6.071000000     3.701000000
C     0.183000000    -6.536000000     2.526000000
C    -0.046000000    -7.878000000     2.232000000
H    -0.571000000    -8.388000000     3.036000000
C     0.398000000    -8.482000000     1.023000000
H     0.142000000    -9.519000000     0.819000000
C     1.214000000    -7.692000000     0.201000000
H     1.710000000    -8.160000000    -0.645000000
C     1.446000000    -6.297000000     0.544000000
C     0.843000000    -5.709000000     1.677000000
H     0.878000000    -4.644000000     1.891000000
C     2.816000000    -1.654000000    -0.044000000
H     3.233000000    -2.567000000    -0.462000000
C     1.492000000    -1.275000000    -0.372000000
H     0.928000000    -1.871000000    -1.084000000
C     0.942000000    -0.100000000     0.093000000
C    -0.462000000     0.301000000    -0.410000000
H    -0.525000000     0.206000000    -1.496000000
H    -1.217000000    -0.335000000     0.058000000
H    -0.706000000     1.345000000    -0.200000000
C     1.600000000     0.635000000     1.065000000
H     1.184000000     1.515000000     1.549000000
C     2.879000000     0.239000000     1.524000000
H     3.413000000     0.860000000     2.238000000
C     3.528000000    -0.874000000     0.903000000
C     4.902000000    -1.309000000     1.392000000
O     5.413000000    -0.728000000     2.312000000
O     5.443000000    -2.233000000     0.780000000
O     4.376000000    -0.571000000     6.038000000
H     3.915000000    -0.652000000     6.873000000
H     3.996000000    -1.256000000     5.487000000
O     4.866000000    -5.068000000     1.700000000
H     5.225000000    -4.283000000     1.287000000
H     3.934000000    -5.050000000     1.481000000
O     5.508000000     2.332000000     6.307000000
H     6.014000000     1.764000000     5.727000000
H     4.851000000     1.754000000     6.696000000
O     6.604000000    -3.044000000     3.276000000
H     6.133000000    -2.359000000     2.803000000
H     6.191000000    -3.859000000     2.992000000
O     8.200000000    -3.474000000     0.484000000
H     7.352000000    -3.065000000     0.658000000
H     8.001000000    -4.189000000    -0.121000000
O     5.709000000     2.026000000     1.763000000
H     5.514000000     1.109000000     1.953000000
H     5.858000000     2.050000000     0.818000000
O     6.179000000    -3.287000000     5.779000000
H     6.170000000    -3.177000000     4.828000000
H     5.342000000    -2.924000000     6.070000000
O     1.226000000    -1.765000000     3.034000000
H     1.005000000    -0.867000000     3.285000000
H     1.672000000    -1.675000000     2.192000000
O     7.583000000    -0.629000000    -1.260000000
H     7.896000000     0.105000000    -0.731000000
H     6.774000000    -0.906000000    -0.830000000
O     3.726000000    -5.601000000     4.556000000
H     3.400000000    -6.500000000     4.512000000
H     4.537000000    -5.664000000     5.061000000
O     8.939000000     0.844000000     4.575000000
H     8.065000000     0.493000000     4.401000000
H     9.166000000     0.501000000     5.439000000
O     9.736000000    -1.506000000     1.497000000
H     9.116000000    -2.157000000     1.168000000
H     9.186000000    -0.838000000     1.906000000
O     7.845000000     0.108000000    -4.146000000
H     7.696000000    -0.206000000    -3.254000000
H     7.181000000     0.786000000    -4.275000000
O     9.269000000    -4.167000000     4.112000000
H     9.425000000    -4.908000000     3.527000000
H     8.500000000    -3.730000000     3.746000000
O     6.471000000     0.168000000     4.509000000
H     5.946000000    -0.145000000     3.772000000
H     5.994000000    -0.126000000     5.285000000
O     9.770000000    -2.426000000    -2.765000000
H     8.961000000    -2.790000000    -2.405000000
H     9.755000000    -1.505000000    -2.505000000
O     7.973000000     3.022000000     3.119000000
H     8.199000000     2.245000000     3.631000000
H     7.339000000     2.708000000     2.475000000
O     3.424000000    -2.989000000     4.471000000
H     3.435000000    -3.944000000     4.521000000
H     2.551000000    -2.776000000     4.142000000
O     8.787000000     1.468000000     0.460000000
H     9.102000000     2.052000000    -0.230000000
H     9.573000000     1.236000000     0.954000000
