218
-1429.72206
C     2.920000000     3.728000000    -3.174000000
H     2.371000000     4.600000000    -2.828000000
C     2.248000000     2.537000000    -3.627000000
C     2.967000000     1.396000000    -4.116000000
H     2.540000000     0.428000000    -4.365000000
C     0.679000000     2.425000000    -3.593000000
O     0.035000000     3.727000000    -3.379000000
H     0.442000000     1.816000000    -2.708000000
O     0.195000000     1.815000000    -4.784000000
C    -0.780000000     0.880000000    -4.562000000
C    -0.411000000    -0.492000000    -4.593000000
H     0.615000000    -0.819000000    -4.742000000
C    -1.328000000    -1.493000000    -4.343000000
O    -0.915000000    -2.780000000    -4.090000000
C    -2.693000000    -1.143000000    -4.053000000
C    -3.729000000    -2.080000000    -3.604000000
H    -4.715000000    -1.669000000    -3.829000000
C    -3.680000000    -2.254000000    -2.126000000
C    -4.470000000    -1.511000000    -1.205000000
H    -5.079000000    -0.680000000    -1.551000000
H    -3.649000000    -3.104000000    -3.977000000
C    -3.023000000     0.205000000    -3.998000000
H    -4.010000000     0.520000000    -3.667000000
C    -2.117000000     1.219000000    -4.275000000
C    -2.655000000     2.553000000    -3.992000000
H    -3.742000000     2.507000000    -4.089000000
H    -2.165000000     3.186000000    -4.734000000
C    -2.227000000     3.281000000    -2.675000000
C    -3.172000000     3.378000000    -1.655000000
H    -4.172000000     3.007000000    -1.864000000
C    -0.968000000     3.873000000    -2.446000000
C    -0.655000000     4.452000000    -1.212000000
H     0.344000000     4.840000000    -1.031000000
C    -1.575000000     4.436000000    -0.210000000
O    -1.104000000     4.669000000     1.040000000
C    -0.868000000     3.569000000     1.902000000
C     0.419000000     3.669000000     2.646000000
C     0.482000000     3.270000000     4.008000000
H    -0.405000000     2.943000000     4.544000000
C     1.608000000     4.158000000     1.990000000
H     1.617000000     4.378000000     0.926000000
O    -2.026000000     3.400000000     2.795000000
H    -0.839000000     2.705000000     1.222000000
C    -2.843000000     3.907000000    -0.384000000
C    -3.957000000     3.978000000     0.709000000
H    -4.913000000     4.076000000     0.190000000
H    -3.867000000     4.862000000     1.344000000
C    -3.879000000     2.708000000     1.537000000
C    -4.653000000     1.593000000     1.144000000
H    -5.293000000     1.660000000     0.268000000
C    -3.010000000     2.493000000     2.570000000
C    -2.901000000     1.217000000     3.202000000
H    -2.164000000     0.935000000     3.949000000
C    -3.847000000     0.241000000     2.872000000
O    -3.602000000    -0.959000000     3.483000000
C    -2.687000000    -1.873000000     2.806000000
C    -1.635000000    -2.470000000     3.691000000
C    -1.239000000    -1.733000000     4.812000000
H    -1.525000000    -0.695000000     4.962000000
C    -1.069000000    -3.711000000     3.431000000
H    -1.455000000    -4.312000000     2.612000000
O    -3.549000000    -2.889000000     2.120000000
H    -2.172000000    -1.292000000     2.027000000
C    -4.638000000     0.338000000     1.800000000
C    -5.357000000    -0.858000000     1.145000000
H    -6.338000000    -0.599000000     0.742000000
H    -5.603000000    -1.607000000     1.901000000
C    -4.451000000    -1.737000000     0.221000000
C    -3.655000000    -2.745000000     0.728000000
C    -2.790000000    -3.402000000    -0.151000000
H    -2.183000000    -4.187000000     0.290000000
C    -2.849000000    -3.263000000    -1.579000000
O    -1.941000000    -4.023000000    -2.337000000
C    -0.767000000    -3.251000000    -2.701000000
H    -0.892000000    -2.445000000    -1.963000000
C     0.534000000    -4.104000000    -2.462000000
C     1.716000000    -3.806000000    -3.100000000
H     1.746000000    -2.998000000    -3.827000000
C     0.558000000    -5.217000000    -1.511000000
H    -0.328000000    -5.359000000    -0.897000000
C     1.743000000    -5.900000000    -1.358000000
O     1.905000000    -6.872000000    -0.343000000
C     2.810000000    -5.665000000    -2.220000000
H     3.703000000    -6.285000000    -2.225000000
C     2.898000000    -4.509000000    -2.961000000
O     4.063000000    -4.154000000    -3.613000000
C     4.119000000    -3.101000000    -4.467000000
C     4.666000000    -1.918000000    -4.081000000
H     5.108000000    -1.871000000    -3.089000000
C     3.698000000    -3.329000000    -5.818000000
H     3.398000000    -4.315000000    -6.163000000
C     3.702000000    -2.256000000    -6.665000000
H     3.420000000    -2.455000000    -7.696000000
C     4.168000000    -1.031000000    -6.244000000
H     4.295000000    -0.240000000    -6.978000000
C     4.735000000    -0.833000000    -4.990000000
O     5.132000000     0.377000000    -4.539000000
C     4.349000000     1.445000000    -4.120000000
C     5.005000000     2.537000000    -3.478000000
H     6.091000000     2.538000000    -3.529000000
C     4.290000000     3.613000000    -3.076000000
O     5.064000000     4.582000000    -2.423000000
C     4.605000000     5.310000000    -1.371000000
C     4.415000000     4.732000000    -0.100000000
H     4.581000000     3.669000000     0.050000000
C     4.307000000     6.670000000    -1.497000000
H     4.271000000     7.128000000    -2.482000000
C     3.639000000     7.356000000    -0.432000000
H     3.405000000     8.414000000    -0.518000000
C     3.398000000     6.766000000     0.741000000
H     3.008000000     7.359000000     1.565000000
C     4.000000000     5.464000000     0.968000000
O     3.874000000     4.829000000     2.134000000
C     2.785000000     4.242000000     2.667000000
C     2.833000000     3.728000000     3.971000000
H     3.737000000     3.833000000     4.566000000
C     1.679000000     3.288000000     4.657000000
O     1.809000000     2.880000000     5.988000000
C     0.999000000     1.993000000     6.677000000
C     0.857000000     0.681000000     6.255000000
H     1.348000000     0.304000000     5.362000000
C     0.127000000     2.487000000     7.669000000
H     0.059000000     3.554000000     7.864000000
C    -0.690000000     1.580000000     8.383000000
H    -1.349000000     1.950000000     9.165000000
C    -0.573000000     0.192000000     8.177000000
H    -1.087000000    -0.596000000     8.722000000
C     0.150000000    -0.237000000     7.027000000
O     0.229000000    -1.615000000     6.822000000
C    -0.280000000    -2.223000000     5.699000000
C     0.248000000    -3.459000000     5.391000000
H     1.023000000    -3.890000000     6.020000000
C    -0.177000000    -4.235000000     4.322000000
O     0.391000000    -5.476000000     4.168000000
C     0.301000000    -6.236000000     2.986000000
C    -0.852000000    -7.080000000     2.861000000
H    -1.436000000    -7.111000000     3.778000000
C    -0.973000000    -7.816000000     1.671000000
H    -1.818000000    -8.494000000     1.579000000
C    -0.087000000    -7.687000000     0.566000000
H    -0.176000000    -8.361000000    -0.282000000
C     1.068000000    -6.885000000     0.762000000
C     1.225000000    -6.080000000     1.951000000
H     2.025000000    -5.346000000     1.903000000
C     2.336000000    -0.622000000    -1.016000000
H     2.932000000    -1.058000000    -1.814000000
C     1.009000000    -0.268000000    -1.262000000
H     0.640000000    -0.260000000    -2.285000000
C     0.162000000    -0.028000000    -0.179000000
C    -1.303000000     0.214000000    -0.375000000
H    -1.760000000    -0.768000000    -0.512000000
H    -1.655000000     0.807000000     0.472000000
H    -1.380000000     0.902000000    -1.220000000
C     0.612000000    -0.009000000     1.160000000
H    -0.041000000     0.319000000     1.965000000
C     2.048000000    -0.157000000     1.346000000
H     2.429000000    -0.083000000     2.362000000
C     2.888000000    -0.561000000     0.286000000
C     4.341000000    -0.794000000     0.506000000
O     4.932000000    -0.574000000     1.509000000
O     4.900000000    -1.531000000    -0.248000000
O     4.155000000     0.467000000     5.617000000
H     3.979000000     0.571000000     6.552000000
H     3.591000000    -0.259000000     5.347000000
O     3.702000000    -3.919000000     0.319000000
H     4.154000000    -3.189000000    -0.105000000
H     4.237000000    -4.685000000     0.112000000
O     8.056000000     3.686000000     0.792000000
H     7.803000000     2.889000000     0.328000000
H     7.675000000     3.587000000     1.665000000
O     4.360000000    -3.301000000     2.972000000
H     4.645000000    -2.419000000     2.731000000
H     3.916000000    -3.631000000     2.191000000
O     6.842000000    -2.780000000     1.103000000
H     6.194000000    -2.159000000     0.768000000
H     7.199000000    -3.198000000     0.319000000
O     5.043000000     1.430000000     3.212000000
H     5.004000000     0.703000000     2.590000000
H     4.575000000     1.111000000     3.983000000
O     7.274000000    -5.076000000     3.022000000
H     7.816000000    -5.576000000     2.412000000
H     6.693000000    -4.563000000     2.461000000
O     0.659000000    -3.126000000     0.860000000
H     0.489000000    -2.302000000     0.405000000
H     1.503000000    -3.419000000     0.517000000
O     7.045000000    -0.694000000    -1.754000000
H     6.994000000     0.258000000    -1.670000000
H     6.578000000    -1.027000000    -0.987000000
O     4.412000000    -4.473000000     5.565000000
H     4.094000000    -5.375000000     5.517000000
H     4.552000000    -4.220000000     4.653000000
O     8.529000000    -1.727000000     2.855000000
H     8.029000000    -2.183000000     2.177000000
H     7.866000000    -1.412000000     3.470000000
O     6.652000000    -0.582000000     4.774000000
H     6.627000000     0.161000000     4.171000000
H     5.782000000    -0.595000000     5.174000000
O     7.089000000    -5.483000000    -1.099000000
H     7.269000000    -6.160000000    -1.752000000
H     6.548000000    -5.921000000    -0.443000000
O     6.595000000     3.643000000     2.962000000
H     6.628000000     4.028000000     3.838000000
H     5.870000000     3.020000000     3.001000000
O     8.264000000     0.280000000    -4.581000000
H     7.367000000     0.506000000    -4.332000000
H     8.757000000     1.092000000    -4.466000000
O     2.770000000    -2.064000000     5.303000000
H     3.157000000    -2.911000000     5.525000000
H     2.161000000    -2.258000000     4.591000000
O     6.765000000     1.300000000     0.291000000
H     6.380000000     1.863000000     0.962000000
H     6.492000000     0.416000000     0.535000000
O    10.178000000    -0.263000000    -1.273000000
H     9.295000000    -0.008000000    -1.541000000
H    10.374000000    -1.038000000    -1.799000000
O     9.318000000    -3.544000000    -1.710000000
H     9.305000000    -2.841000000    -2.360000000
H     8.421000000    -3.878000000    -1.702000000
