218
-1485.92520
C     4.505000000     1.552000000    -2.817000000
H     4.373000000     2.367000000    -2.111000000
C     3.449000000     1.147000000    -3.658000000
C     3.602000000     0.084000000    -4.555000000
H     2.749000000    -0.272000000    -5.127000000
C     2.040000000     1.778000000    -3.425000000
O     2.246000000     3.126000000    -2.947000000
H     1.643000000     1.168000000    -2.600000000
O     1.161000000     1.715000000    -4.650000000
C    -0.149000000     1.518000000    -4.428000000
C    -0.627000000     0.273000000    -4.618000000
H     0.105000000    -0.460000000    -4.947000000
C    -1.938000000    -0.109000000    -4.254000000
O    -2.221000000    -1.433000000    -4.214000000
C    -2.827000000     0.884000000    -3.865000000
C    -4.291000000     0.577000000    -3.633000000
H    -4.903000000     1.401000000    -4.005000000
C    -4.483000000     0.137000000    -2.183000000
C    -4.706000000     1.115000000    -1.218000000
H    -4.813000000     2.116000000    -1.629000000
H    -4.448000000    -0.195000000    -4.389000000
C    -2.313000000     2.210000000    -3.581000000
H    -2.927000000     3.061000000    -3.296000000
C    -0.991000000     2.526000000    -3.895000000
C    -0.484000000     3.888000000    -3.774000000
H    -1.285000000     4.595000000    -4.003000000
H     0.264000000     4.105000000    -4.539000000
C     0.103000000     4.114000000    -2.390000000
C    -0.748000000     4.556000000    -1.441000000
H    -1.760000000     4.905000000    -1.632000000
C     1.354000000     3.713000000    -2.014000000
C     1.820000000     3.834000000    -0.733000000
H     2.830000000     3.560000000    -0.441000000
C     0.965000000     4.386000000     0.229000000
O     1.370000000     4.525000000     1.511000000
C     0.946000000     3.445000000     2.407000000
C     2.096000000     2.898000000     3.228000000
C     1.857000000     2.484000000     4.554000000
H     0.917000000     2.699000000     5.058000000
C     3.288000000     2.547000000     2.626000000
H     3.498000000     2.804000000     1.591000000
O    -0.217000000     3.843000000     3.260000000
H     0.581000000     2.586000000     1.825000000
C    -0.370000000     4.708000000    -0.101000000
C    -1.285000000     5.255000000     0.991000000
H    -1.965000000     6.038000000     0.651000000
H    -0.758000000     5.856000000     1.735000000
C    -2.078000000     4.132000000     1.681000000
C    -3.311000000     3.673000000     1.174000000
H    -3.814000000     4.229000000     0.387000000
C    -1.467000000     3.500000000     2.798000000
C    -2.139000000     2.473000000     3.435000000
H    -1.670000000     2.013000000     4.301000000
C    -3.262000000     1.956000000     2.882000000
O    -3.666000000     0.750000000     3.369000000
C    -3.261000000    -0.428000000     2.601000000
C    -2.659000000    -1.508000000     3.475000000
C    -1.964000000    -1.293000000     4.682000000
H    -1.813000000    -0.287000000     5.065000000
C    -2.657000000    -2.802000000     2.981000000
H    -3.235000000    -3.017000000     2.086000000
O    -4.391000000    -0.930000000     1.838000000
H    -2.406000000    -0.091000000     1.996000000
C    -3.937000000     2.528000000     1.770000000
C    -5.116000000     1.867000000     1.124000000
H    -5.689000000     2.644000000     0.614000000
H    -5.737000000     1.374000000     1.876000000
C    -4.792000000     0.766000000     0.127000000
C    -4.546000000    -0.581000000     0.561000000
C    -4.195000000    -1.547000000    -0.376000000
H    -3.846000000    -2.526000000    -0.056000000
C    -4.185000000    -1.170000000    -1.739000000
O    -3.686000000    -2.094000000    -2.672000000
C    -2.291000000    -2.052000000    -2.951000000
H    -1.919000000    -1.354000000    -2.186000000
C    -1.526000000    -3.361000000    -2.828000000
C    -0.313000000    -3.545000000    -3.475000000
H    -0.025000000    -2.763000000    -4.174000000
C    -2.084000000    -4.415000000    -2.066000000
H    -3.044000000    -4.271000000    -1.577000000
C    -1.397000000    -5.598000000    -1.913000000
O    -1.975000000    -6.659000000    -1.280000000
C    -0.148000000    -5.753000000    -2.532000000
H     0.451000000    -6.637000000    -2.325000000
C     0.330000000    -4.811000000    -3.387000000
O     1.567000000    -5.013000000    -4.031000000
C     2.120000000    -4.174000000    -4.938000000
C     3.176000000    -3.299000000    -4.675000000
H     3.611000000    -3.355000000    -3.680000000
C     1.519000000    -4.090000000    -6.182000000
H     0.583000000    -4.603000000    -6.388000000
C     2.043000000    -3.269000000    -7.222000000
H     1.489000000    -3.117000000    -8.145000000
C     3.227000000    -2.539000000    -6.966000000
H     3.635000000    -1.789000000    -7.640000000
C     3.793000000    -2.625000000    -5.710000000
O     4.863000000    -1.752000000    -5.422000000
C     4.742000000    -0.660000000    -4.565000000
C     5.801000000    -0.297000000    -3.689000000
H     6.705000000    -0.900000000    -3.644000000
C     5.670000000     0.811000000    -2.816000000
O     6.723000000     1.067000000    -1.946000000
C     6.565000000     1.844000000    -0.824000000
C     6.123000000     1.339000000     0.357000000
H     5.924000000     0.271000000     0.389000000
C     6.839000000     3.209000000    -0.846000000
H     7.309000000     3.643000000    -1.725000000
C     6.705000000     4.042000000     0.249000000
H     6.963000000     5.093000000     0.149000000
C     6.402000000     3.477000000     1.457000000
H     6.403000000     4.049000000     2.382000000
C     5.922000000     2.164000000     1.450000000
O     5.558000000     1.676000000     2.679000000
C     4.317000000     1.913000000     3.349000000
C     4.063000000     1.514000000     4.694000000
H     4.716000000     0.918000000     5.326000000
C     2.783000000     1.810000000     5.281000000
O     2.492000000     1.512000000     6.638000000
C     1.333000000     0.926000000     7.083000000
C     0.795000000    -0.241000000     6.564000000
H     1.294000000    -0.721000000     5.726000000
C     0.773000000     1.426000000     8.261000000
H     1.041000000     2.342000000     8.782000000
C    -0.304000000     0.870000000     8.791000000
H    -0.880000000     1.263000000     9.626000000
C    -0.842000000    -0.291000000     8.254000000
H    -1.788000000    -0.658000000     8.645000000
C    -0.250000000    -0.897000000     7.152000000
O    -0.679000000    -2.095000000     6.632000000
C    -1.396000000    -2.305000000     5.430000000
C    -1.565000000    -3.610000000     4.972000000
H    -1.111000000    -4.469000000     5.460000000
C    -2.155000000    -3.837000000     3.729000000
O    -2.041000000    -5.119000000     3.290000000
C    -2.705000000    -5.636000000     2.228000000
C    -4.123000000    -5.856000000     2.232000000
H    -4.707000000    -5.653000000     3.126000000
C    -4.769000000    -6.347000000     1.023000000
H    -5.845000000    -6.392000000     1.172000000
C    -4.043000000    -6.631000000    -0.149000000
H    -4.550000000    -6.849000000    -1.085000000
C    -2.655000000    -6.431000000    -0.111000000
C    -2.007000000    -5.962000000     1.047000000
H    -0.964000000    -5.705000000     0.883000000
C     0.711000000    -2.342000000     0.299000000
H     0.496000000    -3.397000000     0.446000000
C    -0.287000000    -1.338000000     0.138000000
H    -1.330000000    -1.632000000     0.211000000
C    -0.005000000     0.024000000    -0.017000000
C    -1.028000000     1.102000000    -0.292000000
H    -0.940000000     1.563000000    -1.278000000
H    -2.045000000     0.732000000    -0.144000000
H    -0.795000000     1.957000000     0.345000000
C     1.300000000     0.416000000     0.061000000
H     1.615000000     1.455000000     0.006000000
C     2.327000000    -0.528000000     0.252000000
H     3.358000000    -0.255000000     0.464000000
C     2.067000000    -1.899000000     0.315000000
C     3.205000000    -2.847000000     0.435000000
O     4.386000000    -2.447000000     0.599000000
O     3.018000000    -4.039000000     0.417000000
O     1.452000000    -6.091000000     0.763000000
H     1.964000000    -5.289000000     0.867000000
H     1.728000000    -6.444000000    -0.083000000
O     5.894000000    -4.571000000    -3.323000000
H     5.165000000    -4.812000000    -2.751000000
H     6.127000000    -5.385000000    -3.770000000
O     6.433000000    -2.453000000     5.418000000
H     6.501000000    -1.772000000     4.748000000
H     6.453000000    -3.274000000     4.927000000
O     3.989000000    -5.598000000    -1.662000000
H     3.567000000    -5.200000000    -0.900000000
H     3.506000000    -6.412000000    -1.805000000
O     2.618000000    -7.564000000     3.641000000
H     2.785000000    -6.627000000     3.742000000
H     2.372000000    -7.666000000     2.722000000
O     5.301000000    -1.210000000     2.954000000
H     5.044000000    -1.501000000     2.079000000
H     5.653000000    -0.330000000     2.820000000
O     6.354000000    -2.447000000    -1.038000000
H     5.514000000    -2.498000000    -0.583000000
H     6.313000000    -3.142000000    -1.695000000
O     0.879000000    -1.353000000     3.296000000
H     0.185000000    -1.888000000     2.912000000
H     0.930000000    -0.584000000     2.729000000
O     3.198000000    -2.582000000     4.178000000
H     3.832000000    -2.099000000     3.649000000
H     2.391000000    -2.071000000     4.112000000
O    -0.034000000    -8.005000000     2.122000000
H    -0.055000000    -7.466000000     2.913000000
H     0.505000000    -7.508000000     1.507000000
O     8.110000000    -4.724000000    -0.513000000
H     7.657000000    -4.295000000     0.212000000
H     8.286000000    -4.019000000    -1.136000000
O     3.455000000    -4.905000000     2.979000000
H     3.257000000    -4.112000000     3.477000000
H     3.381000000    -4.637000000     2.063000000
O     9.393000000    -1.976000000     2.756000000
H     8.784000000    -2.686000000     2.553000000
H     8.991000000    -1.520000000     3.495000000
O     7.679000000    -7.698000000     1.825000000
H     8.168000000    -8.308000000     1.272000000
H     7.179000000    -7.163000000     1.208000000
O     2.867000000    -8.010000000    -1.593000000
H     2.887000000    -8.255000000    -2.518000000
H     3.089000000    -8.816000000    -1.126000000
O     8.419000000    -0.875000000    -0.265000000
H     7.695000000    -1.445000000    -0.524000000
H     9.205000000    -1.335000000    -0.562000000
O     7.282000000    -3.590000000     1.804000000
H     6.603000000    -3.035000000     1.423000000
H     6.864000000    -3.993000000     2.565000000
O     6.212000000    -6.932000000    -0.431000000
H     6.686000000    -6.129000000    -0.649000000
H     5.323000000    -6.780000000    -0.753000000
O     6.518000000    -4.903000000     4.243000000
H     6.585000000    -5.368000000     5.077000000
H     5.619000000    -5.058000000     3.954000000
