218
-1470.66273
C     4.244000000     1.524000000    -3.276000000
H     4.301000000     2.489000000    -2.779000000
C     3.057000000     1.022000000    -3.776000000
C     3.121000000    -0.261000000    -4.334000000
H     2.183000000    -0.674000000    -4.695000000
C     1.704000000     1.727000000    -3.598000000
O     1.936000000     3.137000000    -3.357000000
H     1.177000000     1.309000000    -2.728000000
O     0.853000000     1.584000000    -4.823000000
C    -0.467000000     1.340000000    -4.506000000
C    -1.020000000     0.074000000    -4.607000000
H    -0.419000000    -0.792000000    -4.874000000
C    -2.330000000    -0.175000000    -4.114000000
O    -2.732000000    -1.466000000    -4.026000000
C    -3.126000000     0.915000000    -3.678000000
C    -4.533000000     0.668000000    -3.188000000
H    -5.106000000     1.544000000    -3.500000000
C    -4.564000000     0.392000000    -1.741000000
C    -4.877000000     1.431000000    -0.795000000
H    -5.084000000     2.465000000    -1.061000000
H    -4.931000000    -0.132000000    -3.815000000
C    -2.562000000     2.192000000    -3.649000000
H    -3.202000000     3.064000000    -3.542000000
C    -1.237000000     2.445000000    -4.084000000
C    -0.706000000     3.925000000    -3.945000000
H    -1.643000000     4.480000000    -4.016000000
H     0.040000000     4.272000000    -4.663000000
C    -0.099000000     4.151000000    -2.585000000
C    -0.838000000     4.594000000    -1.507000000
H    -1.911000000     4.697000000    -1.649000000
C     1.223000000     3.752000000    -2.362000000
C     1.773000000     3.898000000    -1.104000000
H     2.798000000     3.623000000    -0.873000000
C     1.071000000     4.393000000    -0.006000000
O     1.629000000     4.311000000     1.275000000
C     1.225000000     3.283000000     2.185000000
C     2.343000000     2.532000000     2.842000000
C     2.212000000     1.985000000     4.114000000
H     1.363000000     2.227000000     4.749000000
C     3.524000000     2.139000000     2.077000000
H     3.597000000     2.438000000     1.034000000
O     0.186000000     3.823000000     3.058000000
H     0.538000000     2.544000000     1.747000000
C    -0.234000000     4.778000000    -0.241000000
C    -1.142000000     5.306000000     0.859000000
H    -1.895000000     5.957000000     0.410000000
H    -0.539000000     5.874000000     1.571000000
C    -1.783000000     4.254000000     1.683000000
C    -3.077000000     3.873000000     1.420000000
H    -3.616000000     4.456000000     0.677000000
C    -1.144000000     3.577000000     2.792000000
C    -1.746000000     2.526000000     3.418000000
H    -1.160000000     2.071000000     4.213000000
C    -2.941000000     2.128000000     3.036000000
O    -3.424000000     1.016000000     3.645000000
C    -3.205000000    -0.180000000     2.966000000
C    -2.779000000    -1.272000000     3.977000000
C    -2.224000000    -1.018000000     5.208000000
H    -2.317000000    -0.034000000     5.661000000
C    -2.580000000    -2.563000000     3.507000000
H    -2.813000000    -2.708000000     2.456000000
O    -4.501000000    -0.533000000     2.357000000
H    -2.483000000    -0.067000000     2.144000000
C    -3.620000000     2.819000000     2.045000000
C    -4.996000000     2.231000000     1.635000000
H    -5.604000000     3.047000000     1.239000000
H    -5.641000000     1.829000000     2.420000000
C    -4.871000000     1.150000000     0.602000000
C    -4.619000000    -0.154000000     1.001000000
C    -4.340000000    -1.211000000     0.086000000
H    -4.166000000    -2.214000000     0.466000000
C    -4.379000000    -0.906000000    -1.273000000
O    -4.071000000    -1.932000000    -2.131000000
C    -2.670000000    -2.006000000    -2.677000000
H    -2.026000000    -1.344000000    -2.079000000
C    -2.048000000    -3.357000000    -2.746000000
C    -1.030000000    -3.614000000    -3.701000000
H    -0.796000000    -2.837000000    -4.424000000
C    -2.363000000    -4.359000000    -1.839000000
H    -3.109000000    -4.155000000    -1.075000000
C    -1.678000000    -5.547000000    -1.857000000
O    -1.872000000    -6.485000000    -0.914000000
C    -0.708000000    -5.813000000    -2.779000000
H    -0.176000000    -6.758000000    -2.705000000
C    -0.382000000    -4.855000000    -3.731000000
O     0.548000000    -5.121000000    -4.721000000
C     1.251000000    -4.187000000    -5.389000000
C     2.405000000    -3.658000000    -4.763000000
H     2.542000000    -3.846000000    -3.701000000
C     0.987000000    -3.942000000    -6.735000000
H     0.141000000    -4.394000000    -7.245000000
C     1.827000000    -3.137000000    -7.464000000
H     1.566000000    -2.854000000    -8.480000000
C     2.944000000    -2.603000000    -6.897000000
H     3.547000000    -1.892000000    -7.457000000
C     3.271000000    -2.874000000    -5.511000000
O     4.361000000    -2.188000000    -5.036000000
C     4.323000000    -0.987000000    -4.524000000
C     5.463000000    -0.436000000    -3.973000000
H     6.439000000    -0.905000000    -4.064000000
C     5.432000000     0.774000000    -3.352000000
O     6.546000000     1.383000000    -2.786000000
C     6.456000000     1.990000000    -1.517000000
C     5.895000000     1.263000000    -0.449000000
H     5.464000000     0.279000000    -0.613000000
C     6.980000000     3.297000000    -1.311000000
H     7.418000000     3.917000000    -2.090000000
C     7.038000000     3.789000000    -0.031000000
H     7.486000000     4.768000000     0.118000000
C     6.623000000     3.071000000     1.066000000
H     6.843000000     3.390000000     2.081000000
C     6.063000000     1.758000000     0.857000000
O     5.682000000     1.006000000     1.936000000
C     4.545000000     1.409000000     2.654000000
C     4.491000000     1.128000000     4.008000000
H     5.308000000     0.598000000     4.493000000
C     3.313000000     1.338000000     4.717000000
O     3.170000000     0.923000000     6.055000000
C     2.027000000     0.694000000     6.807000000
C     1.084000000    -0.199000000     6.291000000
H     1.147000000    -0.654000000     5.306000000
C     1.848000000     1.379000000     7.952000000
H     2.529000000     2.173000000     8.249000000
C     0.891000000     0.937000000     8.880000000
H     0.808000000     1.355000000     9.880000000
C     0.010000000    -0.086000000     8.469000000
H    -0.731000000    -0.479000000     9.159000000
C     0.115000000    -0.683000000     7.240000000
O    -0.683000000    -1.807000000     7.003000000
C    -1.407000000    -2.001000000     5.884000000
C    -1.218000000    -3.201000000     5.299000000
H    -0.648000000    -3.954000000     5.837000000
C    -1.866000000    -3.509000000     4.139000000
O    -1.629000000    -4.748000000     3.557000000
C    -2.384000000    -5.331000000     2.613000000
C    -3.605000000    -5.942000000     2.894000000
H    -4.005000000    -5.884000000     3.903000000
C    -4.307000000    -6.620000000     1.948000000
H    -5.268000000    -7.101000000     2.112000000
C    -3.718000000    -6.778000000     0.692000000
H    -4.178000000    -7.462000000    -0.017000000
C    -2.500000000    -6.190000000     0.302000000
C    -1.828000000    -5.539000000     1.339000000
H    -0.782000000    -5.285000000     1.192000000
C     0.355000000    -2.368000000    -0.585000000
H    -0.076000000    -3.365000000    -0.548000000
C    -0.379000000    -1.256000000    -0.249000000
H    -1.413000000    -1.403000000     0.051000000
C     0.177000000     0.003000000    -0.186000000
C    -0.748000000     1.102000000     0.119000000
H    -1.739000000     0.962000000    -0.316000000
H    -0.833000000     1.136000000     1.207000000
H    -0.303000000     1.999000000    -0.316000000
C     1.482000000     0.146000000    -0.614000000
H     1.986000000     1.109000000    -0.617000000
C     2.315000000    -0.943000000    -0.672000000
H     3.376000000    -0.761000000    -0.823000000
C     1.745000000    -2.198000000    -0.753000000
C     2.625000000    -3.405000000    -0.818000000
O     3.803000000    -3.248000000    -0.619000000
O     2.217000000    -4.435000000    -1.160000000
O     1.332000000    -6.796000000    -0.369000000
H     1.541000000    -5.959000000    -0.783000000
H     2.042000000    -7.379000000    -0.637000000
O     6.926000000    -4.911000000    -3.657000000
H     6.078000000    -5.126000000    -3.268000000
H     7.456000000    -5.697000000    -3.523000000
O     6.299000000    -2.639000000     4.068000000
H     5.725000000    -2.189000000     3.448000000
H     6.468000000    -3.491000000     3.665000000
O     1.184000000    -7.801000000    -5.588000000
H     1.106000000    -7.018000000    -5.042000000
H     2.003000000    -7.677000000    -6.067000000
O     4.186000000    -5.421000000    -2.863000000
H     3.652000000    -4.909000000    -2.256000000
H     4.069000000    -6.328000000    -2.580000000
O     5.303000000    -6.919000000     3.992000000
H     5.056000000    -6.413000000     4.766000000
H     5.627000000    -6.265000000     3.372000000
O     4.487000000    -2.116000000     1.750000000
H     4.292000000    -2.592000000     0.943000000
H     4.594000000    -1.206000000     1.472000000
O     6.184000000    -2.822000000    -1.322000000
H     5.289000000    -3.077000000    -1.095000000
H     6.480000000    -3.499000000    -1.929000000
O     0.819000000    -1.593000000     2.449000000
H     1.337000000    -1.228000000     1.731000000
H    -0.088000000    -1.410000000     2.207000000
O     2.785000000    -3.096000000     3.737000000
H     3.492000000    -2.706000000     3.223000000
H     2.007000000    -2.593000000     3.495000000
O     0.101000000    -8.323000000     1.591000000
H    -0.513000000    -7.632000000     1.840000000
H     0.615000000    -7.942000000     0.879000000
O     4.281000000    -5.978000000    -5.835000000
H     4.025000000    -5.829000000    -4.924000000
H     5.031000000    -5.399000000    -5.970000000
O     8.525000000    -3.395000000     0.546000000
H     7.587000000    -3.320000000     0.369000000
H     8.602000000    -3.257000000     1.490000000
O     2.867000000    -5.820000000     2.413000000
H     2.242000000    -6.403000000     2.843000000
H     2.897000000    -5.045000000     2.973000000
O     2.822000000    -8.842000000    -1.009000000
H     2.824000000    -9.203000000    -1.896000000
H     3.574000000    -9.254000000    -0.582000000
O     8.900000000    -1.881000000    -1.729000000
H     7.949000000    -1.937000000    -1.637000000
H     9.242000000    -2.262000000    -0.920000000
O     4.633000000    -5.505000000     0.333000000
H     4.298000000    -4.827000000    -0.253000000
H     3.902000000    -5.697000000     0.920000000
O     6.867000000    -6.971000000    -0.026000000
H     6.969000000    -7.145000000    -0.962000000
H     5.962000000    -6.675000000     0.066000000
O     6.726000000    -5.068000000     2.089000000
H     7.278000000    -5.821000000     1.882000000
H     6.016000000    -5.108000000     1.448000000
