218
-1459.07891
C     4.301000000     2.567000000    -2.074000000
H     3.905000000     3.453000000    -1.586000000
C     3.511000000     1.876000000    -3.009000000
C     4.072000000     0.700000000    -3.603000000
H     3.453000000     0.153000000    -4.310000000
C     2.019000000     2.178000000    -3.142000000
O     1.781000000     3.606000000    -3.024000000
H     1.525000000     1.701000000    -2.283000000
O     1.469000000     1.680000000    -4.337000000
C     0.185000000     1.182000000    -4.277000000
C     0.072000000    -0.239000000    -4.255000000
H     0.974000000    -0.846000000    -4.263000000
C    -1.154000000    -0.876000000    -4.212000000
O    -1.183000000    -2.264000000    -4.207000000
C    -2.359000000    -0.192000000    -4.201000000
C    -3.690000000    -0.750000000    -4.136000000
H    -4.439000000    -0.090000000    -4.578000000
C    -4.072000000    -1.086000000    -2.723000000
C    -4.722000000    -0.149000000    -1.988000000
H    -5.048000000     0.801000000    -2.404000000
H    -3.750000000    -1.581000000    -4.842000000
C    -2.218000000     1.209000000    -4.148000000
H    -3.099000000     1.843000000    -4.206000000
C    -0.993000000     1.890000000    -4.260000000
C    -0.893000000     3.457000000    -4.225000000
H    -1.856000000     3.868000000    -4.535000000
H    -0.169000000     3.844000000    -4.945000000
C    -0.584000000     3.976000000    -2.798000000
C    -1.649000000     4.312000000    -2.034000000
H    -2.634000000     4.156000000    -2.468000000
C     0.700000000     4.146000000    -2.324000000
C     0.917000000     4.535000000    -0.998000000
H     1.948000000     4.557000000    -0.655000000
C    -0.170000000     4.906000000    -0.223000000
O     0.165000000     5.030000000     1.089000000
C    -0.222000000     3.908000000     2.026000000
C     0.876000000     3.891000000     3.055000000
C     0.953000000     2.806000000     3.874000000
H     0.037000000     2.221000000     3.901000000
C     2.058000000     4.611000000     2.897000000
H     2.165000000     5.376000000     2.132000000
O    -1.537000000     4.163000000     2.613000000
H    -0.143000000     2.955000000     1.482000000
C    -1.499000000     4.703000000    -0.723000000
C    -2.675000000     4.969000000     0.147000000
H    -3.520000000     5.393000000    -0.401000000
H    -2.404000000     5.746000000     0.864000000
C    -3.140000000     3.760000000     0.869000000
C    -4.083000000     2.854000000     0.335000000
H    -4.621000000     3.077000000    -0.582000000
C    -2.507000000     3.379000000     2.074000000
C    -2.855000000     2.171000000     2.725000000
H    -2.398000000     1.994000000     3.695000000
C    -3.754000000     1.257000000     2.102000000
O    -3.919000000     0.013000000     2.753000000
C    -3.466000000    -1.188000000     2.139000000
C    -2.914000000    -2.164000000     3.147000000
C    -2.227000000    -1.646000000     4.285000000
H    -2.195000000    -0.589000000     4.540000000
C    -2.911000000    -3.531000000     2.950000000
H    -3.296000000    -3.813000000     1.973000000
O    -4.615000000    -1.653000000     1.401000000
H    -2.687000000    -0.925000000     1.408000000
C    -4.331000000     1.620000000     0.909000000
C    -5.398000000     0.759000000     0.263000000
H    -5.994000000     1.411000000    -0.379000000
H    -6.062000000     0.294000000     0.995000000
C    -4.869000000    -0.347000000    -0.623000000
C    -4.468000000    -1.500000000     0.005000000
C    -3.830000000    -2.534000000    -0.781000000
H    -3.443000000    -3.391000000    -0.235000000
C    -3.682000000    -2.285000000    -2.157000000
O    -2.915000000    -3.243000000    -2.784000000
C    -1.507000000    -2.893000000    -2.912000000
H    -1.281000000    -2.182000000    -2.103000000
C    -0.539000000    -3.962000000    -2.575000000
C     0.804000000    -3.957000000    -2.878000000
H     1.156000000    -3.111000000    -3.463000000
C    -1.043000000    -5.080000000    -1.820000000
H    -2.118000000    -5.113000000    -1.661000000
C    -0.247000000    -6.161000000    -1.350000000
O    -0.772000000    -7.221000000    -0.676000000
C     1.138000000    -6.043000000    -1.557000000
H     1.825000000    -6.825000000    -1.243000000
C     1.650000000    -5.036000000    -2.348000000
O     3.017000000    -4.794000000    -2.363000000
C     3.533000000    -4.080000000    -3.385000000
C     4.270000000    -3.001000000    -2.999000000
H     4.082000000    -2.562000000    -2.022000000
C     3.379000000    -4.431000000    -4.747000000
H     2.832000000    -5.334000000    -5.008000000
C     4.124000000    -3.715000000    -5.700000000
H     4.143000000    -3.901000000    -6.771000000
C     4.821000000    -2.609000000    -5.270000000
H     5.222000000    -1.960000000    -6.043000000
C     4.878000000    -2.159000000    -3.989000000
O     5.696000000    -1.052000000    -3.720000000
C     5.223000000     0.161000000    -3.191000000
C     6.001000000     0.855000000    -2.228000000
H     7.026000000     0.539000000    -2.054000000
C     5.562000000     2.097000000    -1.675000000
O     6.358000000     2.687000000    -0.759000000
C     5.936000000     3.769000000     0.013000000
C     5.328000000     3.723000000     1.268000000
H     4.995000000     2.820000000     1.774000000
C     6.387000000     5.029000000    -0.389000000
H     7.022000000     5.132000000    -1.266000000
C     5.929000000     6.175000000     0.216000000
H     6.429000000     7.097000000    -0.069000000
C     5.383000000     6.104000000     1.445000000
H     5.091000000     6.988000000     2.007000000
C     5.059000000     4.863000000     2.004000000
O     4.438000000     4.849000000     3.262000000
C     3.224000000     4.252000000     3.505000000
C     3.205000000     3.273000000     4.474000000
H     4.140000000     3.033000000     4.974000000
C     2.060000000     2.526000000     4.689000000
O     2.227000000     1.304000000     5.317000000
C     1.273000000     0.741000000     6.167000000
C     0.734000000    -0.530000000     5.810000000
H     1.223000000    -1.153000000     5.065000000
C     0.723000000     1.537000000     7.159000000
H     1.042000000     2.539000000     7.433000000
C    -0.325000000     1.014000000     7.906000000
H    -0.624000000     1.644000000     8.740000000
C    -0.958000000    -0.172000000     7.599000000
H    -1.790000000    -0.523000000     8.205000000
C    -0.415000000    -0.907000000     6.509000000
O    -0.854000000    -2.167000000     6.287000000
C    -1.546000000    -2.535000000     5.132000000
C    -1.646000000    -3.901000000     4.914000000
H    -1.178000000    -4.593000000     5.610000000
C    -2.325000000    -4.368000000     3.812000000
O    -2.275000000    -5.766000000     3.603000000
C    -2.566000000    -6.244000000     2.327000000
C    -3.897000000    -6.549000000     2.007000000
H    -4.724000000    -6.298000000     2.666000000
C    -4.174000000    -7.153000000     0.772000000
H    -5.198000000    -7.451000000     0.562000000
C    -3.182000000    -7.471000000    -0.086000000
H    -3.369000000    -7.921000000    -1.058000000
C    -1.823000000    -7.067000000     0.196000000
C    -1.536000000    -6.559000000     1.473000000
H    -0.490000000    -6.368000000     1.698000000
C     1.631000000    -1.801000000     0.190000000
H     1.632000000    -2.888000000     0.206000000
C     0.410000000    -1.180000000    -0.067000000
H    -0.544000000    -1.674000000    -0.232000000
C     0.236000000     0.217000000    -0.070000000
C    -0.987000000     0.913000000    -0.488000000
H    -1.330000000     0.502000000    -1.440000000
H    -1.679000000     0.916000000     0.357000000
H    -0.709000000     1.965000000    -0.572000000
C     1.384000000     0.979000000     0.231000000
H     1.290000000     2.059000000     0.154000000
C     2.574000000     0.343000000     0.606000000
H     3.439000000     0.982000000     0.767000000
C     2.771000000    -1.039000000     0.405000000
C     4.059000000    -1.713000000     0.754000000
O     4.909000000    -1.043000000     1.263000000
O     4.142000000    -2.928000000     0.815000000
O     4.640000000     0.009000000     5.776000000
H     4.354000000    -0.898000000     5.885000000
H     3.852000000     0.529000000     5.936000000
O     3.429000000    -5.976000000     0.909000000
H     3.487000000    -5.036000000     1.077000000
H     3.684000000    -6.072000000    -0.009000000
O     6.096000000    -2.603000000     3.112000000
H     5.510000000    -3.145000000     3.640000000
H     5.600000000    -2.421000000     2.314000000
O     6.016000000    -4.389000000    -0.165000000
H     5.373000000    -3.791000000     0.217000000
H     5.945000000    -5.185000000     0.362000000
O     7.556000000    -4.897000000     2.604000000
H     7.060000000    -4.087000000     2.723000000
H     6.888000000    -5.573000000     2.496000000
O     8.993000000     0.081000000     1.777000000
H     8.384000000    -0.169000000     1.082000000
H     8.431000000     0.296000000     2.522000000
O     6.339000000    -4.882000000     5.712000000
H     6.522000000    -4.287000000     6.439000000
H     5.490000000    -4.595000000     5.376000000
O     4.039000000    -4.343000000     4.395000000
H     3.563000000    -4.330000000     3.564000000
H     3.355000000    -4.397000000     5.062000000
O     7.307000000    -1.400000000     0.255000000
H     6.539000000    -1.073000000     0.723000000
H     7.205000000    -2.352000000     0.264000000
O     1.968000000    -4.234000000     5.994000000
H     1.564000000    -5.093000000     6.119000000
H     1.368000000    -3.622000000     6.420000000
O     7.783000000     1.028000000     4.485000000
H     6.920000000     0.922000000     4.083000000
H     7.964000000     0.181000000     4.892000000
O     8.194000000    -2.358000000    -3.012000000
H     8.037000000    -3.281000000    -2.815000000
H     7.329000000    -2.008000000    -3.226000000
O     5.558000000     0.717000000     3.015000000
H     5.275000000     0.031000000     2.410000000
H     5.012000000     0.593000000     3.791000000
O     7.349000000    -4.808000000    -2.456000000
H     6.597000000    -4.670000000    -1.881000000
H     8.031000000    -5.154000000    -1.880000000
O     2.054000000    -7.751000000     2.527000000
H     1.625000000    -8.346000000     1.912000000
H     2.513000000    -7.122000000     1.971000000
O     7.828000000    -1.959000000     5.061000000
H     7.171000000    -2.009000000     4.366000000
H     8.646000000    -1.766000000     4.603000000
O     5.987000000    -7.156000000     2.341000000
H     6.200000000    -7.881000000     2.928000000
H     5.169000000    -7.421000000     1.921000000
O    10.012000000    -2.193000000    -0.554000000
H     9.430000000    -2.914000000    -0.794000000
H     9.423000000    -1.479000000    -0.311000000
O     9.075000000    -5.327000000    -0.390000000
H     9.851000000    -5.852000000    -0.194000000
H     8.579000000    -5.318000000     0.429000000
