218
-1472.07665
C     4.491000000     0.477000000    -2.518000000
H     4.688000000     1.382000000    -1.949000000
C     3.241000000     0.380000000    -3.152000000
C     3.012000000    -0.846000000    -3.811000000
H     2.036000000    -0.854000000    -4.290000000
C     2.116000000     1.440000000    -3.005000000
O     2.823000000     2.721000000    -2.869000000
H     1.572000000     1.301000000    -2.060000000
O     1.288000000     1.484000000    -4.178000000
C    -0.070000000     1.706000000    -3.973000000
C    -0.939000000     0.620000000    -4.169000000
H    -0.569000000    -0.348000000    -4.499000000
C    -2.308000000     0.793000000    -3.878000000
O    -3.028000000    -0.380000000    -3.893000000
C    -2.838000000     1.982000000    -3.515000000
C    -4.283000000     2.175000000    -3.067000000
H    -4.620000000     3.206000000    -3.195000000
C    -4.513000000     1.725000000    -1.611000000
C    -4.293000000     2.663000000    -0.561000000
H    -4.167000000     3.710000000    -0.827000000
H    -4.964000000     1.728000000    -3.794000000
C    -1.946000000     3.071000000    -3.312000000
H    -2.396000000     4.009000000    -2.999000000
C    -0.579000000     2.891000000    -3.486000000
C     0.335000000     4.101000000    -3.410000000
H    -0.233000000     5.032000000    -3.451000000
H     0.953000000     4.146000000    -4.309000000
C     1.069000000     4.148000000    -2.044000000
C     0.510000000     4.786000000    -0.958000000
H    -0.543000000     5.036000000    -1.057000000
C     2.304000000     3.476000000    -1.883000000
C     2.951000000     3.510000000    -0.666000000
H     3.797000000     2.836000000    -0.563000000
C     2.438000000     4.245000000     0.460000000
O     2.987000000     4.130000000     1.760000000
C     2.423000000     3.047000000     2.558000000
C     3.509000000     2.209000000     3.214000000
C     3.173000000     1.274000000     4.186000000
H     2.198000000     1.377000000     4.656000000
C     4.834000000     2.100000000     2.561000000
H     5.005000000     2.654000000     1.642000000
O     1.413000000     3.509000000     3.463000000
H     2.002000000     2.303000000     1.865000000
C     1.195000000     4.860000000     0.254000000
C     0.439000000     5.323000000     1.519000000
H    -0.166000000     6.150000000     1.144000000
H     1.096000000     5.716000000     2.298000000
C    -0.425000000     4.325000000     2.110000000
C    -1.819000000     4.179000000     1.690000000
H    -2.253000000     4.865000000     0.967000000
C     0.088000000     3.437000000     3.069000000
C    -0.680000000     2.405000000     3.580000000
H    -0.291000000     1.730000000     4.338000000
C    -2.041000000     2.318000000     3.245000000
O    -2.802000000     1.280000000     3.742000000
C    -3.152000000     0.241000000     2.839000000
C    -2.918000000    -1.184000000     3.459000000
C    -1.709000000    -1.493000000     4.018000000
H    -0.910000000    -0.763000000     4.114000000
C    -3.743000000    -2.232000000     3.097000000
H    -4.678000000    -1.974000000     2.608000000
O    -4.539000000     0.348000000     2.341000000
H    -2.444000000     0.348000000     2.004000000
C    -2.610000000     3.242000000     2.292000000
C    -4.121000000     3.308000000     1.895000000
H    -4.273000000     4.307000000     1.482000000
H    -4.675000000     3.106000000     2.815000000
C    -4.383000000     2.284000000     0.775000000
C    -4.607000000     0.912000000     1.074000000
C    -4.793000000     0.007000000     0.038000000
H    -5.126000000    -1.011000000     0.226000000
C    -4.743000000     0.380000000    -1.332000000
O    -4.692000000    -0.674000000    -2.218000000
C    -3.326000000    -1.071000000    -2.640000000
H    -2.566000000    -0.807000000    -1.890000000
C    -3.170000000    -2.631000000    -2.964000000
C    -2.027000000    -3.191000000    -3.539000000
H    -1.163000000    -2.587000000    -3.803000000
C    -4.186000000    -3.436000000    -2.456000000
H    -5.089000000    -3.027000000    -2.011000000
C    -4.003000000    -4.809000000    -2.448000000
O    -4.796000000    -5.520000000    -1.600000000
C    -2.868000000    -5.328000000    -3.128000000
H    -2.775000000    -6.411000000    -3.151000000
C    -1.865000000    -4.573000000    -3.587000000
O    -0.679000000    -5.148000000    -4.052000000
C     0.317000000    -4.409000000    -4.751000000
C     1.615000000    -4.175000000    -4.224000000
H     1.898000000    -4.572000000    -3.252000000
C     0.016000000    -4.112000000    -6.095000000
H    -0.927000000    -4.425000000    -6.537000000
C     0.921000000    -3.320000000    -6.817000000
H     0.798000000    -3.166000000    -7.886000000
C     2.141000000    -2.980000000    -6.241000000
H     2.828000000    -2.442000000    -6.889000000
C     2.495000000    -3.401000000    -4.961000000
O     3.693000000    -3.108000000    -4.381000000
C     3.949000000    -1.882000000    -3.930000000
C     5.192000000    -1.800000000    -3.300000000
H     5.847000000    -2.667000000    -3.304000000
C     5.476000000    -0.514000000    -2.651000000
O     6.700000000    -0.464000000    -2.083000000
C     7.085000000     0.540000000    -1.177000000
C     6.930000000     0.244000000     0.150000000
H     6.543000000    -0.707000000     0.508000000
C     7.582000000     1.789000000    -1.543000000
H     7.681000000     1.987000000    -2.607000000
C     7.926000000     2.693000000    -0.557000000
H     8.319000000     3.648000000    -0.896000000
C     7.596000000     2.432000000     0.750000000
H     7.710000000     3.220000000     1.491000000
C     7.165000000     1.201000000     1.122000000
O     6.977000000     0.920000000     2.411000000
C     5.729000000     1.092000000     2.954000000
C     5.407000000     0.376000000     4.104000000
H     6.042000000    -0.410000000     4.505000000
C     4.109000000     0.299000000     4.657000000
O     3.810000000    -0.573000000     5.644000000
C     2.623000000    -0.949000000     6.108000000
C     1.829000000    -1.805000000     5.331000000
H     2.335000000    -2.226000000     4.466000000
C     2.042000000    -0.377000000     7.268000000
H     2.613000000     0.436000000     7.709000000
C     0.820000000    -0.838000000     7.750000000
H     0.337000000    -0.362000000     8.599000000
C     0.017000000    -1.689000000     6.999000000
H    -0.971000000    -2.086000000     7.222000000
C     0.542000000    -2.146000000     5.771000000
O    -0.157000000    -3.049000000     4.959000000
C    -1.394000000    -2.726000000     4.503000000
C    -2.171000000    -3.799000000     4.141000000
H    -1.895000000    -4.818000000     4.403000000
C    -3.360000000    -3.505000000     3.456000000
O    -4.074000000    -4.579000000     2.995000000
C    -4.848000000    -4.544000000     1.914000000
C    -6.143000000    -4.059000000     2.049000000
H    -6.402000000    -3.677000000     3.033000000
C    -7.026000000    -4.224000000     0.980000000
H    -8.065000000    -3.937000000     1.128000000
C    -6.584000000    -4.596000000    -0.281000000
H    -7.233000000    -4.626000000    -1.153000000
C    -5.251000000    -5.041000000    -0.399000000
C    -4.386000000    -5.001000000     0.650000000
H    -3.339000000    -5.265000000     0.523000000
C    -0.608000000    -3.118000000    -0.242000000
H    -1.416000000    -3.812000000    -0.030000000
C    -0.980000000    -1.784000000    -0.256000000
H    -1.996000000    -1.456000000    -0.051000000
C     0.048000000    -0.803000000    -0.462000000
C    -0.262000000     0.647000000    -0.151000000
H     0.652000000     1.220000000     0.021000000
H    -0.732000000     1.074000000    -1.040000000
H    -0.917000000     0.620000000     0.722000000
C     1.356000000    -1.213000000    -0.539000000
H     2.092000000    -0.413000000    -0.523000000
C     1.690000000    -2.573000000    -0.835000000
H     2.733000000    -2.846000000    -0.974000000
C     0.689000000    -3.556000000    -0.531000000
C     1.031000000    -5.005000000    -0.439000000
O     2.222000000    -5.357000000    -0.529000000
O     0.149000000    -5.850000000    -0.302000000
O     1.858000000    -7.799000000     0.607000000
H     2.270000000    -6.997000000     0.286000000
H     0.946000000    -7.555000000     0.761000000
O     2.165000000    -9.090000000     2.839000000
H     2.020000000    -8.498000000     2.101000000
H     1.677000000    -9.881000000     2.611000000
O    -0.980000000    -7.913000000    -1.330000000
H    -0.626000000    -7.038000000    -1.169000000
H    -1.078000000    -8.295000000    -0.457000000
O     6.032000000    -5.071000000     3.278000000
H     5.170000000    -5.390000000     3.544000000
H     6.604000000    -5.834000000     3.352000000
O     0.341000000    -7.916000000    -4.394000000
H    -0.473000000    -7.416000000    -4.448000000
H     0.278000000    -8.387000000    -3.564000000
O     3.014000000    -7.019000000    -4.922000000
H     2.063000000    -7.093000000    -4.844000000
H     3.312000000    -7.916000000    -5.074000000
O    -1.169000000    -8.784000000     1.245000000
H    -0.703000000    -9.598000000     1.055000000
H    -2.084000000    -8.977000000     1.040000000
O     3.654000000    -4.957000000     1.826000000
H     2.914000000    -4.905000000     2.431000000
H     3.254000000    -4.963000000     0.957000000
O     5.074000000    -4.903000000    -1.640000000
H     4.126000000    -4.906000000    -1.768000000
H     5.428000000    -5.234000000    -2.466000000
O     2.145000000    -9.846000000    -0.921000000
H     2.803000000    -9.719000000    -1.605000000
H     2.045000000    -8.981000000    -0.522000000
O     3.503000000    -6.939000000     4.582000000
H     3.006000000    -6.304000000     4.066000000
H     3.306000000    -6.714000000     5.492000000
O    -0.636000000    -6.296000000     2.278000000
H    -0.750000000    -7.223000000     2.069000000
H    -0.712000000    -5.849000000     1.435000000
O     5.302000000    -7.031000000     0.654000000
H     4.891000000    -6.867000000    -0.195000000
H     4.798000000    -6.498000000     1.270000000
O     1.625000000    -4.706000000     3.540000000
H     1.295000000    -4.077000000     4.181000000
H     0.869000000    -5.254000000     3.331000000
O    -2.917000000    -9.168000000    -3.578000000
H    -2.212000000    -8.885000000    -2.996000000
H    -3.714000000    -9.059000000    -3.059000000
O     5.962000000    -3.520000000     0.684000000
H     5.377000000    -3.875000000     1.353000000
H     5.826000000    -4.084000000    -0.077000000
O     4.817000000   -10.030000000     0.839000000
H     4.272000000    -9.243000000     0.844000000
H     5.162000000   -10.088000000     1.730000000
O     5.620000000    -5.971000000    -4.114000000
H     5.950000000    -6.861000000    -4.237000000
H     4.689000000    -6.029000000    -4.327000000
O     3.282000000    -7.431000000    -2.073000000
H     2.932000000    -7.188000000    -2.930000000
H     2.647000000    -7.083000000    -1.447000000
