218
-1478.77475
C     4.683000000     0.815000000    -2.942000000
H     4.971000000     1.820000000    -2.643000000
C     3.360000000     0.457000000    -3.355000000
C     3.028000000    -0.822000000    -3.736000000
H     2.036000000    -1.149000000    -4.036000000
C     2.297000000     1.528000000    -3.244000000
O     2.855000000     2.834000000    -3.088000000
H     1.684000000     1.233000000    -2.379000000
O     1.455000000     1.581000000    -4.426000000
C     0.090000000     1.799000000    -4.238000000
C    -0.759000000     0.709000000    -4.379000000
H    -0.341000000    -0.275000000    -4.576000000
C    -2.115000000     0.806000000    -4.074000000
O    -2.845000000    -0.367000000    -4.175000000
C    -2.674000000     2.039000000    -3.697000000
C    -4.109000000     2.214000000    -3.206000000
H    -4.341000000     3.281000000    -3.191000000
C    -4.354000000     1.667000000    -1.878000000
C    -4.288000000     2.500000000    -0.775000000
H    -4.134000000     3.569000000    -0.900000000
H    -4.860000000     1.816000000    -3.892000000
C    -1.784000000     3.147000000    -3.585000000
H    -2.268000000     4.043000000    -3.207000000
C    -0.439000000     3.053000000    -3.867000000
C     0.441000000     4.246000000    -3.721000000
H    -0.180000000     5.144000000    -3.741000000
H     1.098000000     4.360000000    -4.585000000
C     1.209000000     4.281000000    -2.298000000
C     0.572000000     4.862000000    -1.182000000
H    -0.430000000     5.270000000    -1.294000000
C     2.342000000     3.616000000    -2.072000000
C     2.849000000     3.460000000    -0.785000000
H     3.757000000     2.863000000    -0.761000000
C     2.240000000     4.087000000     0.274000000
O     2.686000000     3.770000000     1.549000000
C     2.037000000     2.794000000     2.349000000
C     3.021000000     1.967000000     3.072000000
C     2.571000000     1.252000000     4.190000000
H     1.569000000     1.492000000     4.539000000
C     4.315000000     1.841000000     2.633000000
H     4.619000000     2.469000000     1.799000000
O     1.098000000     3.474000000     3.240000000
H     1.532000000     2.181000000     1.588000000
C     1.094000000     4.828000000     0.116000000
C     0.214000000     5.334000000     1.241000000
H    -0.378000000     6.126000000     0.777000000
H     0.840000000     5.851000000     1.971000000
C    -0.707000000     4.212000000     1.806000000
C    -2.023000000     4.107000000     1.444000000
H    -2.450000000     4.741000000     0.671000000
C    -0.252000000     3.418000000     2.921000000
C    -1.139000000     2.463000000     3.452000000
H    -0.778000000     1.867000000     4.286000000
C    -2.418000000     2.375000000     3.079000000
O    -3.098000000     1.214000000     3.516000000
C    -3.184000000     0.105000000     2.574000000
C    -2.948000000    -1.197000000     3.325000000
C    -2.303000000    -1.086000000     4.513000000
H    -1.831000000    -0.157000000     4.824000000
C    -3.358000000    -2.469000000     2.803000000
H    -3.979000000    -2.444000000     1.911000000
O    -4.454000000     0.158000000     1.990000000
H    -2.401000000     0.289000000     1.824000000
C    -2.890000000     3.231000000     2.069000000
C    -4.295000000     3.091000000     1.628000000
H    -4.688000000     4.050000000     1.285000000
H    -4.994000000     2.857000000     2.434000000
C    -4.422000000     2.081000000     0.519000000
C    -4.533000000     0.693000000     0.728000000
C    -4.652000000    -0.183000000    -0.355000000
H    -4.742000000    -1.259000000    -0.230000000
C    -4.568000000     0.295000000    -1.652000000
O    -4.491000000    -0.705000000    -2.606000000
C    -3.111000000    -0.998000000    -2.958000000
H    -2.435000000    -0.598000000    -2.189000000
C    -2.889000000    -2.512000000    -3.133000000
C    -1.853000000    -3.029000000    -3.934000000
H    -1.307000000    -2.241000000    -4.445000000
C    -3.639000000    -3.440000000    -2.410000000
H    -4.447000000    -3.040000000    -1.804000000
C    -3.376000000    -4.798000000    -2.415000000
O    -4.098000000    -5.630000000    -1.639000000
C    -2.345000000    -5.280000000    -3.223000000
H    -2.144000000    -6.347000000    -3.176000000
C    -1.574000000    -4.387000000    -3.940000000
O    -0.532000000    -4.973000000    -4.685000000
C     0.619000000    -4.340000000    -5.140000000
C     1.655000000    -4.006000000    -4.313000000
H     1.575000000    -4.144000000    -3.238000000
C     0.902000000    -4.180000000    -6.492000000
H     0.082000000    -4.373000000    -7.180000000
C     2.072000000    -3.628000000    -7.025000000
H     2.225000000    -3.634000000    -8.101000000
C     3.086000000    -3.276000000    -6.132000000
H     4.033000000    -2.831000000    -6.427000000
C     2.845000000    -3.491000000    -4.779000000
O     3.781000000    -3.114000000    -3.780000000
C     4.046000000    -1.801000000    -3.635000000
C     5.275000000    -1.490000000    -3.073000000
H     5.958000000    -2.306000000    -2.847000000
C     5.640000000    -0.192000000    -2.704000000
O     6.863000000     0.022000000    -2.056000000
C     7.079000000     0.756000000    -0.947000000
C     6.683000000     0.186000000     0.252000000
H     6.246000000    -0.810000000     0.250000000
C     7.612000000     2.016000000    -1.021000000
H     7.850000000     2.387000000    -2.014000000
C     7.846000000     2.763000000     0.137000000
H     8.403000000     3.695000000     0.080000000
C     7.341000000     2.296000000     1.290000000
H     7.421000000     2.808000000     2.246000000
C     6.721000000     1.021000000     1.366000000
O     6.364000000     0.512000000     2.583000000
C     5.137000000     0.889000000     3.163000000
C     4.662000000     0.192000000     4.293000000
H     5.296000000    -0.506000000     4.834000000
C     3.406000000     0.436000000     4.880000000
O     3.060000000    -0.405000000     5.932000000
C     1.722000000    -0.306000000     6.465000000
C     0.736000000    -1.237000000     6.141000000
H     0.761000000    -1.926000000     5.300000000
C     1.413000000     0.602000000     7.473000000
H     2.189000000     1.276000000     7.827000000
C     0.175000000     0.641000000     8.099000000
H    -0.039000000     1.478000000     8.760000000
C    -0.834000000    -0.247000000     7.757000000
H    -1.856000000    -0.191000000     8.122000000
C    -0.568000000    -1.200000000     6.797000000
O    -1.491000000    -2.195000000     6.484000000
C    -2.150000000    -2.315000000     5.254000000
C    -2.530000000    -3.535000000     4.798000000
H    -2.324000000    -4.373000000     5.460000000
C    -3.042000000    -3.631000000     3.540000000
O    -3.266000000    -4.900000000     3.049000000
C    -4.104000000    -5.167000000     1.990000000
C    -5.363000000    -5.733000000     2.268000000
H    -5.643000000    -5.831000000     3.313000000
C    -6.156000000    -6.188000000     1.231000000
H    -7.131000000    -6.621000000     1.438000000
C    -5.793000000    -6.065000000    -0.088000000
H    -6.421000000    -6.567000000    -0.819000000
C    -4.556000000    -5.525000000    -0.357000000
C    -3.704000000    -5.097000000     0.664000000
H    -2.674000000    -4.878000000     0.392000000
C    -0.070000000    -2.774000000    -0.127000000
H    -0.681000000    -3.670000000    -0.199000000
C    -0.630000000    -1.533000000    -0.243000000
H    -1.709000000    -1.435000000    -0.332000000
C     0.136000000    -0.353000000    -0.351000000
C    -0.531000000     0.952000000    -0.419000000
H     0.150000000     1.674000000    -0.874000000
H    -1.497000000     0.938000000    -0.927000000
H    -0.657000000     1.361000000     0.586000000
C     1.536000000    -0.541000000    -0.313000000
H     2.156000000     0.344000000    -0.438000000
C     2.067000000    -1.839000000    -0.196000000
H     3.136000000    -1.979000000    -0.339000000
C     1.308000000    -2.960000000    -0.165000000
C     1.971000000    -4.402000000    -0.142000000
O     3.140000000    -4.554000000    -0.162000000
O     1.315000000    -5.402000000     0.128000000
O     4.837000000    -4.263000000     2.197000000
H     5.143000000    -5.164000000     2.303000000
H     4.300000000    -4.285000000     1.405000000
O     5.135000000    -9.680000000    -0.570000000
H     4.566000000   -10.411000000    -0.810000000
H     4.540000000    -9.020000000    -0.213000000
O    -0.221000000    -7.543000000    -0.288000000
H     0.236000000    -6.705000000    -0.218000000
H    -0.277000000    -7.707000000    -1.229000000
O     2.182000000    -2.722000000     3.049000000
H     2.082000000    -2.225000000     2.237000000
H     3.080000000    -3.052000000     3.019000000
O     0.122000000    -8.112000000    -2.938000000
H     0.894000000    -7.630000000    -2.642000000
H     0.416000000    -9.020000000    -2.999000000
O     1.196000000    -6.275000000     5.306000000
H     1.817000000    -6.943000000     5.017000000
H     0.835000000    -5.916000000     4.496000000
O     6.120000000    -3.160000000    -0.169000000
H     5.824000000    -3.803000000    -0.814000000
H     5.662000000    -3.400000000     0.636000000
O     0.734000000    -4.902000000     2.930000000
H     0.964000000    -3.979000000     3.031000000
H     1.226000000    -5.189000000     2.160000000
O     3.065000000    -7.846000000     0.256000000
H     2.233000000    -7.377000000     0.192000000
H     2.971000000    -8.398000000     1.032000000
O     6.460000000    -6.529000000    -3.140000000
H     7.287000000    -6.782000000    -2.730000000
H     5.859000000    -6.401000000    -2.407000000
O    -0.779000000    -7.623000000     2.291000000
H    -0.528000000    -6.760000000     2.620000000
H    -0.634000000    -7.571000000     1.346000000
O     2.441000000    -7.119000000    -2.402000000
H     2.632000000    -6.233000000    -2.093000000
H     2.746000000    -7.690000000    -1.697000000
O     3.885000000    -7.228000000     4.089000000
H     4.366000000    -6.404000000     4.165000000
H     4.314000000    -7.690000000     3.369000000
O     6.156000000    -6.896000000     2.774000000
H     6.488000000    -7.588000000     2.202000000
H     6.833000000    -6.793000000     3.443000000
O     5.901000000    -4.649000000    -4.766000000
H     6.121000000    -5.384000000    -4.193000000
H     5.190000000    -4.197000000    -4.313000000
O     5.151000000    -5.868000000    -0.695000000
H     4.482000000    -5.301000000    -0.313000000
H     4.942000000    -6.742000000    -0.364000000
O     6.350000000    -2.775000000     4.249000000
H     5.905000000    -3.396000000     4.826000000
H     5.980000000    -2.946000000     3.383000000
O     3.704000000    -8.478000000    -4.623000000
H     4.639000000    -8.281000000    -4.564000000
H     3.285000000    -7.808000000    -4.083000000
O     2.940000000    -9.494000000     2.315000000
H     2.357000000    -9.143000000     2.988000000
H     3.496000000   -10.118000000     2.782000000
