218
-1475.27910
C     4.847000000     0.348000000    -2.326000000
H     5.078000000     0.931000000    -1.438000000
C     3.759000000     0.682000000    -3.115000000
C     3.496000000    -0.159000000    -4.220000000
H     2.631000000     0.028000000    -4.852000000
C     2.903000000     1.918000000    -2.771000000
O     3.744000000     3.004000000    -2.235000000
H     2.114000000     1.659000000    -2.050000000
O     2.131000000     2.319000000    -3.860000000
C     0.756000000     2.548000000    -3.740000000
C    -0.183000000     1.524000000    -4.157000000
H     0.053000000     0.613000000    -4.701000000
C    -1.507000000     1.744000000    -4.004000000
O    -2.407000000     0.802000000    -4.374000000
C    -1.952000000     2.885000000    -3.240000000
C    -3.402000000     3.117000000    -3.082000000
H    -3.518000000     4.202000000    -3.122000000
C    -3.864000000     2.464000000    -1.785000000
C    -3.714000000     3.163000000    -0.643000000
H    -3.334000000     4.181000000    -0.692000000
H    -3.942000000     2.623000000    -3.893000000
C    -1.010000000     3.863000000    -2.775000000
H    -1.322000000     4.744000000    -2.220000000
C     0.339000000     3.675000000    -3.069000000
C     1.316000000     4.764000000    -2.611000000
H     0.837000000     5.728000000    -2.423000000
H     2.186000000     4.796000000    -3.270000000
C     1.976000000     4.401000000    -1.276000000
C     1.338000000     4.853000000    -0.118000000
H     0.597000000     5.636000000    -0.258000000
C     3.099000000     3.470000000    -1.148000000
C     3.489000000     3.097000000     0.105000000
H     4.256000000     2.342000000     0.259000000
C     2.804000000     3.544000000     1.261000000
O     3.094000000     2.959000000     2.465000000
C     2.208000000     1.990000000     2.971000000
C     2.871000000     0.783000000     3.574000000
C     2.315000000    -0.064000000     4.588000000
H     1.315000000     0.156000000     4.955000000
C     4.102000000     0.396000000     3.003000000
H     4.457000000     0.984000000     2.160000000
O     1.315000000     2.606000000     3.941000000
H     1.577000000     1.544000000     2.187000000
C     1.700000000     4.448000000     1.187000000
C     0.881000000     4.925000000     2.361000000
H     0.350000000     5.841000000     2.091000000
H     1.503000000     5.244000000     3.200000000
C    -0.199000000     3.954000000     2.748000000
C    -1.453000000     4.147000000     2.207000000
H    -1.676000000     5.025000000     1.607000000
C     0.022000000     2.816000000     3.481000000
C    -0.998000000     1.994000000     3.903000000
H    -0.815000000     1.083000000     4.467000000
C    -2.232000000     2.214000000     3.378000000
O    -3.185000000     1.216000000     3.569000000
C    -3.434000000     0.261000000     2.522000000
C    -3.455000000    -1.151000000     3.126000000
C    -2.784000000    -1.502000000     4.297000000
H    -2.209000000    -0.727000000     4.797000000
C    -4.131000000    -2.127000000     2.392000000
H    -4.680000000    -1.872000000     1.489000000
O    -4.658000000     0.625000000     1.761000000
H    -2.581000000     0.313000000     1.830000000
C    -2.485000000     3.248000000     2.496000000
C    -3.802000000     3.334000000     1.827000000
H    -3.941000000     4.366000000     1.499000000
H    -4.584000000     3.040000000     2.530000000
C    -3.962000000     2.528000000     0.588000000
C    -4.425000000     1.251000000     0.551000000
C    -4.620000000     0.505000000    -0.608000000
H    -4.724000000    -0.577000000    -0.587000000
C    -4.349000000     1.136000000    -1.802000000
O    -4.201000000     0.282000000    -2.853000000
C    -2.852000000    -0.058000000    -3.258000000
H    -2.179000000     0.111000000    -2.404000000
C    -2.769000000    -1.572000000    -3.568000000
C    -1.659000000    -2.054000000    -4.297000000
H    -0.922000000    -1.350000000    -4.673000000
C    -3.592000000    -2.441000000    -2.910000000
H    -4.436000000    -2.078000000    -2.329000000
C    -3.352000000    -3.789000000    -3.096000000
O    -4.177000000    -4.724000000    -2.407000000
C    -2.360000000    -4.324000000    -3.889000000
H    -2.236000000    -5.397000000    -4.018000000
C    -1.436000000    -3.446000000    -4.400000000
O    -0.369000000    -4.129000000    -5.015000000
C     0.542000000    -3.355000000    -5.808000000
C     1.835000000    -3.192000000    -5.388000000
H     2.169000000    -3.510000000    -4.404000000
C     0.130000000    -2.872000000    -7.014000000
H    -0.817000000    -3.137000000    -7.478000000
C     1.049000000    -2.033000000    -7.733000000
H     0.797000000    -1.555000000    -8.676000000
C     2.325000000    -1.785000000    -7.269000000
H     2.969000000    -1.074000000    -7.780000000
C     2.675000000    -2.327000000    -6.060000000
O     3.973000000    -2.180000000    -5.582000000
C     4.277000000    -1.228000000    -4.583000000
C     5.331000000    -1.534000000    -3.762000000
H     5.998000000    -2.348000000    -4.033000000
C     5.560000000    -0.822000000    -2.581000000
O     6.644000000    -1.222000000    -1.805000000
C     7.035000000    -0.630000000    -0.608000000
C     6.370000000    -1.149000000     0.511000000
H     5.757000000    -2.042000000     0.418000000
C     7.744000000     0.568000000    -0.508000000
H     8.105000000     1.118000000    -1.374000000
C     7.857000000     1.227000000     0.722000000
H     8.454000000     2.133000000     0.781000000
C     7.173000000     0.770000000     1.801000000
H     7.171000000     1.368000000     2.708000000
C     6.560000000    -0.548000000     1.768000000
O     5.986000000    -1.091000000     2.892000000
C     4.766000000    -0.743000000     3.386000000
C     4.213000000    -1.547000000     4.406000000
H     4.697000000    -2.498000000     4.615000000
C     2.938000000    -1.286000000     4.930000000
O     2.369000000    -2.297000000     5.718000000
C     1.192000000    -2.184000000     6.414000000
C     0.022000000    -2.740000000     5.922000000
H     0.010000000    -3.126000000     4.906000000
C     1.172000000    -1.540000000     7.656000000
H     2.137000000    -1.195000000     8.020000000
C    -0.032000000    -1.619000000     8.426000000
H    -0.015000000    -1.166000000     9.414000000
C    -1.212000000    -2.140000000     7.895000000
H    -2.127000000    -2.212000000     8.478000000
C    -1.188000000    -2.663000000     6.619000000
O    -2.321000000    -3.134000000     6.084000000
C    -2.848000000    -2.751000000     4.832000000
C    -3.600000000    -3.766000000     4.132000000
H    -3.744000000    -4.750000000     4.572000000
C    -4.137000000    -3.451000000     2.861000000
O    -4.808000000    -4.510000000     2.274000000
C    -5.312000000    -4.453000000     1.057000000
C    -6.645000000    -4.334000000     0.828000000
H    -7.282000000    -4.141000000     1.687000000
C    -7.259000000    -4.214000000    -0.383000000
H    -8.336000000    -4.104000000    -0.478000000
C    -6.329000000    -4.254000000    -1.479000000
H    -6.638000000    -4.199000000    -2.520000000
C    -4.945000000    -4.479000000    -1.284000000
C    -4.449000000    -4.656000000     0.015000000
H    -3.375000000    -4.782000000     0.121000000
C     0.038000000    -2.337000000    -0.756000000
H    -0.615000000    -3.205000000    -0.814000000
C    -0.635000000    -1.114000000    -0.484000000
H    -1.715000000    -1.151000000    -0.369000000
C     0.088000000     0.088000000    -0.318000000
C    -0.588000000     1.418000000    -0.232000000
H    -0.797000000     1.576000000     0.828000000
H     0.126000000     2.199000000    -0.501000000
H    -1.482000000     1.515000000    -0.851000000
C     1.484000000    -0.023000000    -0.239000000
H     2.061000000     0.868000000    -0.002000000
C     2.160000000    -1.183000000    -0.489000000
H     3.247000000    -1.186000000    -0.498000000
C     1.410000000    -2.430000000    -0.695000000
C     2.169000000    -3.748000000    -0.817000000
O     3.302000000    -3.694000000    -0.413000000
O     1.532000000    -4.745000000    -0.947000000
O     2.118000000    -7.032000000     0.249000000
H     1.267000000    -7.261000000    -0.124000000
H     2.154000000    -6.077000000     0.198000000
O    -0.961000000    -5.749000000    -0.465000000
H    -0.865000000    -5.349000000     0.399000000
H    -0.217000000    -5.417000000    -0.967000000
O     0.783000000    -2.359000000     2.458000000
H     0.999000000    -1.706000000     1.793000000
H     1.266000000    -3.141000000     2.193000000
O    -0.206000000    -6.035000000     3.206000000
H    -0.547000000    -5.315000000     2.676000000
H     0.688000000    -6.164000000     2.888000000
O     4.445000000    -5.029000000    -4.588000000
H     4.428000000    -4.275000000    -3.998000000
H     4.831000000    -5.732000000    -4.065000000
O     6.659000000    -6.533000000     1.843000000
H     7.203000000    -6.882000000     2.549000000
H     5.761000000    -6.675000000     2.141000000
O     1.660000000    -6.711000000    -3.186000000
H     1.781000000    -6.166000000    -2.409000000
H     2.458000000    -6.578000000    -3.698000000
O     5.151000000    -4.665000000    -2.002000000
H     5.265000000    -5.523000000    -1.594000000
H     4.410000000    -4.275000000    -1.538000000
O     0.596000000    -8.924000000    -1.984000000
H    -0.333000000    -8.803000000    -1.785000000
H     0.810000000    -8.201000000    -2.574000000
O     7.536000000    -5.511000000    -2.944000000
H     6.760000000    -5.072000000    -2.594000000
H     8.073000000    -5.698000000    -2.173000000
O     3.947000000    -7.221000000     2.203000000
H     3.755000000    -7.417000000     1.285000000
H     3.135000000    -7.429000000     2.666000000
O    -1.817000000    -7.532000000    -2.441000000
H    -2.447000000    -8.156000000    -2.079000000
H    -1.843000000    -6.789000000    -1.838000000
O     5.376000000    -7.616000000    -3.904000000
H     5.562000000    -7.788000000    -4.827000000
H     6.050000000    -8.104000000    -3.429000000
O    -1.257000000    -4.056000000     1.917000000
H    -0.727000000    -3.259000000     1.911000000
H    -2.152000000    -3.747000000     2.062000000
O     3.597000000    -8.669000000    -1.833000000
H     4.193000000    -8.022000000    -2.210000000
H     2.975000000    -8.153000000    -1.321000000
O     3.399000000    -5.482000000     5.160000000
H     3.063000000    -4.688000000     4.743000000
H     4.300000000    -5.263000000     5.400000000
O     2.984000000    -4.351000000     2.180000000
H     3.636000000    -4.964000000     2.521000000
H     3.263000000    -4.181000000     1.281000000
O     5.945000000    -6.931000000    -0.700000000
H     6.218000000    -6.605000000     0.158000000
H     6.163000000    -7.863000000    -0.682000000
O    -0.249000000    -6.858000000    -4.905000000
H     0.423000000    -6.533000000    -4.306000000
H    -0.989000000    -7.075000000    -4.338000000
