218
-1445.02805
C     5.276000000     0.624000000    -1.928000000
H     5.500000000     1.435000000    -1.240000000
C     4.155000000     0.673000000    -2.778000000
C     4.009000000    -0.319000000    -3.755000000
H     3.293000000    -0.128000000    -4.551000000
C     3.034000000     1.750000000    -2.614000000
O     3.473000000     3.052000000    -2.070000000
H     2.321000000     1.303000000    -1.906000000
O     2.311000000     2.000000000    -3.804000000
C     0.921000000     2.166000000    -3.727000000
C     0.165000000     1.059000000    -4.157000000
H     0.693000000     0.180000000    -4.519000000
C    -1.230000000     1.140000000    -4.198000000
O    -1.913000000     0.004000000    -4.465000000
C    -1.903000000     2.320000000    -3.805000000
C    -3.434000000     2.470000000    -3.734000000
H    -3.765000000     3.508000000    -3.808000000
C    -3.784000000     1.957000000    -2.314000000
C    -3.990000000     2.833000000    -1.241000000
H    -3.662000000     3.853000000    -1.427000000
H    -3.972000000     1.974000000    -4.545000000
C    -1.128000000     3.400000000    -3.414000000
H    -1.631000000     4.264000000    -2.988000000
C     0.284000000     3.350000000    -3.399000000
C     1.075000000     4.543000000    -2.925000000
H     0.507000000     5.470000000    -3.031000000
H     1.946000000     4.712000000    -3.562000000
C     1.510000000     4.402000000    -1.508000000
C     0.693000000     4.977000000    -0.498000000
H    -0.171000000     5.581000000    -0.763000000
C     2.630000000     3.651000000    -1.162000000
C     2.905000000     3.395000000     0.167000000
H     3.708000000     2.711000000     0.426000000
C     2.063000000     3.803000000     1.163000000
O     2.324000000     3.370000000     2.380000000
C     1.507000000     2.432000000     3.048000000
C     2.286000000     1.317000000     3.736000000
C     1.701000000     0.418000000     4.669000000
H     0.630000000     0.498000000     4.839000000
C     3.598000000     1.090000000     3.356000000
H     4.133000000     1.707000000     2.639000000
O     0.451000000     2.997000000     3.860000000
H     0.915000000     1.926000000     2.271000000
C     0.921000000     4.595000000     0.806000000
C     0.072000000     5.251000000     1.909000000
H    -0.358000000     6.217000000     1.640000000
H     0.778000000     5.314000000     2.740000000
C    -0.963000000     4.195000000     2.308000000
C    -2.219000000     4.230000000     1.682000000
H    -2.504000000     5.044000000     1.021000000
C    -0.716000000     3.247000000     3.272000000
C    -1.699000000     2.358000000     3.598000000
H    -1.433000000     1.652000000     4.381000000
C    -2.890000000     2.317000000     2.941000000
O    -3.768000000     1.330000000     3.203000000
C    -3.790000000     0.204000000     2.281000000
C    -3.811000000    -1.168000000     2.928000000
C    -3.525000000    -1.269000000     4.295000000
H    -3.554000000    -0.374000000     4.912000000
C    -3.992000000    -2.311000000     2.141000000
H    -3.864000000    -2.273000000     1.062000000
O    -4.899000000     0.318000000     1.263000000
H    -2.879000000     0.274000000     1.668000000
C    -3.160000000     3.332000000     1.984000000
C    -4.414000000     3.399000000     1.144000000
H    -4.509000000     4.418000000     0.760000000
H    -5.236000000     3.104000000     1.800000000
C    -4.364000000     2.375000000     0.030000000
C    -4.601000000     0.927000000     0.109000000
C    -4.476000000     0.075000000    -0.941000000
H    -4.497000000    -1.006000000    -0.824000000
C    -3.994000000     0.548000000    -2.161000000
O    -3.717000000    -0.397000000    -3.057000000
C    -2.376000000    -0.665000000    -3.361000000
H    -1.775000000    -0.390000000    -2.481000000
C    -2.112000000    -2.160000000    -3.534000000
C    -0.953000000    -2.566000000    -4.279000000
H    -0.391000000    -1.766000000    -4.753000000
C    -2.957000000    -3.100000000    -2.884000000
H    -3.861000000    -2.883000000    -2.322000000
C    -2.612000000    -4.483000000    -2.963000000
O    -3.331000000    -5.570000000    -2.466000000
C    -1.606000000    -4.850000000    -3.855000000
H    -1.594000000    -5.881000000    -4.200000000
C    -0.720000000    -3.911000000    -4.436000000
O     0.191000000    -4.365000000    -5.388000000
C     1.195000000    -3.555000000    -5.811000000
C     2.381000000    -3.469000000    -5.074000000
H     2.578000000    -4.138000000    -4.240000000
C     0.976000000    -2.678000000    -6.913000000
H     0.051000000    -2.766000000    -7.478000000
C     1.976000000    -1.810000000    -7.308000000
H     1.834000000    -1.445000000    -8.322000000
C     3.194000000    -1.741000000    -6.540000000
H     4.078000000    -1.159000000    -6.786000000
C     3.385000000    -2.561000000    -5.478000000
O     4.538000000    -2.501000000    -4.718000000
C     4.773000000    -1.450000000    -3.767000000
C     5.820000000    -1.497000000    -2.889000000
H     6.493000000    -2.349000000    -2.839000000
C     6.069000000    -0.509000000    -1.958000000
O     7.053000000    -0.662000000    -1.075000000
C     7.076000000    -0.004000000     0.151000000
C     6.141000000    -0.326000000     1.178000000
H     5.406000000    -1.116000000     1.048000000
C     8.054000000     0.900000000     0.327000000
H     8.733000000     1.123000000    -0.492000000
C     8.218000000     1.521000000     1.617000000
H     9.112000000     2.127000000     1.735000000
C     7.303000000     1.271000000     2.635000000
H     7.531000000     1.721000000     3.598000000
C     6.320000000     0.264000000     2.487000000
O     5.716000000    -0.196000000     3.608000000
C     4.374000000     0.097000000     4.015000000
C     3.800000000    -0.703000000     4.991000000
H     4.314000000    -1.617000000     5.277000000
C     2.433000000    -0.631000000     5.234000000
O     1.781000000    -1.542000000     6.045000000
C     0.532000000    -1.316000000     6.547000000
C    -0.446000000    -2.343000000     6.431000000
H    -0.220000000    -3.204000000     5.807000000
C     0.253000000    -0.169000000     7.302000000
H     1.038000000     0.565000000     7.461000000
C    -1.045000000     0.090000000     7.641000000
H    -1.337000000     1.012000000     8.137000000
C    -2.081000000    -0.734000000     7.214000000
H    -3.095000000    -0.367000000     7.349000000
C    -1.725000000    -1.890000000     6.617000000
O    -2.761000000    -2.625000000     6.193000000
C    -3.177000000    -2.497000000     4.845000000
C    -3.454000000    -3.657000000     4.051000000
H    -3.325000000    -4.636000000     4.506000000
C    -3.857000000    -3.564000000     2.771000000
O    -3.803000000    -4.748000000     2.105000000
C    -4.361000000    -5.083000000     0.917000000
C    -5.679000000    -5.494000000     0.976000000
H    -6.170000000    -5.587000000     1.941000000
C    -6.244000000    -5.925000000    -0.210000000
H    -7.309000000    -6.136000000    -0.170000000
C    -5.527000000    -5.875000000    -1.387000000
H    -6.016000000    -6.160000000    -2.315000000
C    -4.148000000    -5.557000000    -1.343000000
C    -3.531000000    -5.106000000    -0.195000000
H    -2.477000000    -4.845000000    -0.164000000
C    -0.140000000    -3.034000000    -0.752000000
H    -0.811000000    -3.872000000    -0.923000000
C    -0.637000000    -1.811000000    -0.419000000
H    -1.717000000    -1.714000000    -0.501000000
C     0.156000000    -0.694000000    -0.109000000
C    -0.609000000     0.639000000    -0.005000000
H    -1.672000000     0.412000000    -0.112000000
H    -0.444000000     1.123000000     0.960000000
H    -0.351000000     1.292000000    -0.841000000
C     1.556000000    -0.752000000    -0.152000000
H     2.219000000     0.070000000     0.106000000
C     2.042000000    -1.955000000    -0.602000000
H     3.110000000    -2.070000000    -0.770000000
C     1.268000000    -3.148000000    -0.869000000
C     1.895000000    -4.401000000    -1.155000000
O     3.083000000    -4.536000000    -0.980000000
O     1.251000000    -5.348000000    -1.542000000
O     3.839000000    -7.299000000    -0.921000000
H     3.031000000    -7.613000000    -1.327000000
H     3.678000000    -6.370000000    -0.754000000
O     6.498000000    -4.078000000     1.461000000
H     5.546000000    -3.985000000     1.425000000
H     6.761000000    -4.206000000     0.550000000
O     1.930000000    -7.752000000     2.426000000
H     1.550000000    -8.021000000     3.263000000
H     1.180000000    -7.463000000     1.905000000
O     0.070000000    -6.244000000     0.943000000
H    -0.681000000    -6.626000000     0.489000000
H     0.611000000    -5.878000000     0.244000000
O     2.991000000    -4.100000000     4.457000000
H     3.632000000    -4.443000000     3.834000000
H     2.422000000    -3.538000000     3.931000000
O     3.595000000    -6.662000000    -4.776000000
H     4.093000000    -6.389000000    -4.006000000
H     2.679000000    -6.557000000    -4.518000000
O     1.113000000    -7.128000000    -3.594000000
H     1.055000000    -6.684000000    -2.748000000
H     0.510000000    -7.868000000    -3.518000000
O     6.638000000    -7.670000000    -1.727000000
H     5.709000000    -7.715000000    -1.503000000
H     6.904000000    -6.787000000    -1.469000000
O     0.488000000    -7.363000000    -6.078000000
H     0.795000000    -7.266000000    -5.177000000
H     1.260000000    -7.183000000    -6.615000000
O     4.882000000    -4.873000000    -2.991000000
H     4.875000000    -4.143000000    -3.610000000
H     4.096000000    -4.744000000    -2.460000000
O     5.767000000    -6.081000000    -6.151000000
H     6.441000000    -5.591000000    -5.679000000
H     5.070000000    -6.210000000    -5.508000000
O     1.249000000    -3.024000000     2.590000000
H     1.563000000    -2.685000000     1.751000000
H     0.310000000    -2.838000000     2.587000000
O    -1.390000000    -7.714000000    -1.014000000
H    -1.177000000    -7.745000000    -1.946000000
H    -2.343000000    -7.798000000    -0.983000000
O     4.101000000    -6.222000000     3.135000000
H     3.519000000    -6.914000000     2.824000000
H     4.760000000    -6.679000000     3.658000000
O     2.612000000   -10.234000000    -2.991000000
H     2.135000000    -9.997000000    -2.196000000
H     2.714000000    -9.409000000    -3.465000000
O     1.303000000    -9.333000000    -0.796000000
H     0.530000000    -8.784000000    -0.924000000
H     1.144000000    -9.781000000     0.035000000
O     0.185000000    -5.229000000     3.740000000
H     0.016000000    -5.568000000     2.860000000
H     0.935000000    -4.644000000     3.631000000
O     6.924000000    -4.947000000    -1.176000000
H     6.199000000    -4.872000000    -1.796000000
H     7.710000000    -4.943000000    -1.723000000
O     3.675000000    -3.862000000     1.355000000
H     3.541000000    -4.759000000     1.663000000
H     3.509000000    -3.906000000     0.413000000
