218
-1447.18801
C     4.877000000     0.970000000    -2.175000000
H     5.039000000     1.620000000    -1.319000000
C     3.782000000     1.136000000    -3.032000000
C     3.741000000     0.395000000    -4.172000000
H     2.999000000     0.604000000    -4.939000000
C     2.727000000     2.255000000    -2.697000000
O     3.253000000     3.400000000    -1.953000000
H     2.009000000     1.756000000    -2.030000000
O     2.021000000     2.646000000    -3.818000000
C     0.650000000     2.783000000    -3.777000000
C    -0.185000000     1.766000000    -4.268000000
H     0.061000000     0.850000000    -4.799000000
C    -1.541000000     1.891000000    -4.080000000
O    -2.295000000     0.765000000    -4.421000000
C    -2.076000000     2.938000000    -3.372000000
C    -3.596000000     2.954000000    -3.116000000
H    -3.956000000     3.984000000    -3.167000000
C    -4.011000000     2.136000000    -1.873000000
C    -4.024000000     2.810000000    -0.672000000
H    -3.813000000     3.876000000    -0.659000000
H    -4.059000000     2.483000000    -3.985000000
C    -1.223000000     4.010000000    -2.951000000
H    -1.612000000     4.764000000    -2.272000000
C     0.143000000     3.923000000    -3.088000000
C     0.976000000     5.063000000    -2.495000000
H     0.373000000     5.969000000    -2.410000000
H     1.893000000     5.369000000    -3.003000000
C     1.390000000     4.681000000    -1.111000000
C     0.708000000     5.053000000     0.002000000
H    -0.237000000     5.559000000    -0.182000000
C     2.579000000     3.925000000    -0.897000000
C     2.903000000     3.544000000     0.435000000
H     3.814000000     2.978000000     0.610000000
C     2.129000000     3.915000000     1.543000000
O     2.456000000     3.410000000     2.760000000
C     1.745000000     2.266000000     3.225000000
C     2.637000000     1.164000000     3.843000000
C     2.386000000     0.574000000     5.055000000
H     1.534000000     0.948000000     5.616000000
C     3.587000000     0.502000000     3.056000000
H     3.910000000     0.962000000     2.126000000
O     0.660000000     2.738000000     4.033000000
H     1.319000000     1.791000000     2.329000000
C     0.998000000     4.713000000     1.305000000
C    -0.017000000     5.041000000     2.443000000
H    -0.546000000     5.977000000     2.253000000
H     0.582000000     5.125000000     3.352000000
C    -0.993000000     3.898000000     2.731000000
C    -2.244000000     3.922000000     2.175000000
H    -2.596000000     4.644000000     1.442000000
C    -0.642000000     2.850000000     3.568000000
C    -1.504000000     1.813000000     3.949000000
H    -1.336000000     0.929000000     4.560000000
C    -2.758000000     1.862000000     3.343000000
O    -3.596000000     0.755000000     3.427000000
C    -3.496000000    -0.170000000     2.353000000
C    -3.305000000    -1.653000000     2.777000000
C    -2.615000000    -1.940000000     4.062000000
H    -2.347000000    -1.079000000     4.669000000
C    -3.715000000    -2.718000000     1.957000000
H    -4.160000000    -2.604000000     0.971000000
O    -4.699000000    -0.036000000     1.496000000
H    -2.585000000     0.169000000     1.837000000
C    -3.098000000     2.952000000     2.536000000
C    -4.423000000     2.930000000     1.816000000
H    -4.700000000     3.977000000     1.676000000
H    -5.155000000     2.488000000     2.494000000
C    -4.323000000     2.154000000     0.504000000
C    -4.533000000     0.744000000     0.373000000
C    -4.532000000     0.010000000    -0.809000000
H    -4.592000000    -1.076000000    -0.820000000
C    -4.242000000     0.754000000    -1.961000000
O    -4.074000000     0.047000000    -3.119000000
C    -2.654000000    -0.203000000    -3.398000000
H    -2.076000000     0.083000000    -2.506000000
C    -2.313000000    -1.670000000    -3.730000000
C    -1.041000000    -2.097000000    -4.147000000
H    -0.243000000    -1.364000000    -4.222000000
C    -3.333000000    -2.602000000    -3.458000000
H    -4.368000000    -2.374000000    -3.218000000
C    -3.058000000    -3.952000000    -3.426000000
O    -4.178000000    -4.867000000    -3.207000000
C    -1.798000000    -4.382000000    -3.879000000
H    -1.634000000    -5.454000000    -3.807000000
C    -0.833000000    -3.470000000    -4.239000000
O     0.404000000    -3.911000000    -4.621000000
C     1.253000000    -3.229000000    -5.451000000
C     2.437000000    -2.626000000    -4.984000000
H     2.665000000    -2.830000000    -3.941000000
C     0.981000000    -3.262000000    -6.840000000
H     0.108000000    -3.777000000    -7.232000000
C     1.897000000    -2.757000000    -7.741000000
H     1.851000000    -2.776000000    -8.827000000
C     3.097000000    -2.131000000    -7.241000000
H     3.885000000    -1.678000000    -7.837000000
C     3.347000000    -2.046000000    -5.893000000
O     4.591000000    -1.467000000    -5.547000000
C     4.733000000    -0.622000000    -4.499000000
C     5.818000000    -0.816000000    -3.554000000
H     6.663000000    -1.480000000    -3.717000000
C     5.810000000    -0.031000000    -2.455000000
O     6.924000000    -0.266000000    -1.572000000
C     6.963000000     0.058000000    -0.281000000
C     6.225000000    -0.626000000     0.680000000
H     5.498000000    -1.351000000     0.324000000
C     7.787000000     1.061000000     0.204000000
H     8.511000000     1.656000000    -0.346000000
C     7.678000000     1.411000000     1.580000000
H     8.395000000     2.124000000     1.978000000
C     6.962000000     0.677000000     2.542000000
H     6.843000000     0.943000000     3.589000000
C     6.208000000    -0.388000000     2.026000000
O     5.436000000    -1.077000000     2.879000000
C     4.313000000    -0.619000000     3.527000000
C     3.916000000    -1.270000000     4.669000000
H     4.415000000    -2.173000000     5.012000000
C     2.980000000    -0.688000000     5.499000000
O     2.470000000    -1.411000000     6.631000000
C     1.120000000    -1.562000000     6.930000000
C     0.398000000    -2.512000000     6.288000000
H     0.984000000    -3.292000000     5.808000000
C     0.359000000    -0.610000000     7.692000000
H     0.885000000     0.252000000     8.094000000
C    -1.028000000    -0.598000000     7.747000000
H    -1.567000000     0.224000000     8.211000000
C    -1.733000000    -1.636000000     7.125000000
H    -2.814000000    -1.746000000     7.173000000
C    -1.019000000    -2.550000000     6.360000000
O    -1.576000000    -3.531000000     5.581000000
C    -2.281000000    -3.221000000     4.432000000
C    -2.578000000    -4.227000000     3.441000000
H    -2.373000000    -5.260000000     3.708000000
C    -3.333000000    -3.954000000     2.318000000
O    -3.666000000    -5.093000000     1.587000000
C    -4.371000000    -5.166000000     0.446000000
C    -5.673000000    -5.669000000     0.528000000
H    -6.125000000    -6.039000000     1.445000000
C    -6.469000000    -5.813000000    -0.592000000
H    -7.542000000    -5.985000000    -0.562000000
C    -5.909000000    -5.511000000    -1.848000000
H    -6.523000000    -5.432000000    -2.741000000
C    -4.608000000    -5.095000000    -1.978000000
C    -3.821000000    -5.026000000    -0.862000000
H    -2.768000000    -4.765000000    -0.933000000
C    -0.107000000    -2.507000000    -0.918000000
H    -0.712000000    -3.406000000    -1.002000000
C    -0.708000000    -1.346000000    -0.432000000
H    -1.790000000    -1.266000000    -0.368000000
C     0.013000000    -0.169000000    -0.055000000
C    -0.555000000     1.127000000     0.451000000
H    -0.749000000     1.133000000     1.526000000
H    -0.022000000     2.032000000     0.152000000
H    -1.535000000     1.286000000    -0.003000000
C     1.406000000    -0.255000000    -0.137000000
H     2.051000000     0.543000000     0.220000000
C     2.012000000    -1.406000000    -0.639000000
H     3.098000000    -1.418000000    -0.696000000
C     1.317000000    -2.526000000    -1.094000000
C     2.051000000    -3.755000000    -1.465000000
O     3.257000000    -3.704000000    -1.725000000
O     1.408000000    -4.822000000    -1.510000000
O     3.163000000    -6.188000000     0.162000000
H     2.757000000    -5.645000000    -0.514000000
H     2.562000000    -6.924000000     0.271000000
O     2.276000000    -9.350000000     1.378000000
H     2.327000000    -9.333000000     0.422000000
H     1.358000000    -9.544000000     1.566000000
O    -0.272000000    -6.242000000    -0.137000000
H    -0.767000000    -6.730000000    -0.795000000
H     0.279000000    -5.646000000    -0.644000000
O     3.363000000    -4.725000000     4.878000000
H     3.297000000    -5.574000000     4.441000000
H     3.279000000    -4.085000000     4.172000000
O     3.308000000    -6.025000000    -5.227000000
H     3.811000000    -5.299000000    -4.858000000
H     2.556000000    -6.116000000    -4.642000000
O     1.376000000    -6.811000000    -3.241000000
H     1.303000000    -6.130000000    -2.571000000
H     1.646000000    -7.593000000    -2.760000000
O     6.570000000    -6.437000000    -1.379000000
H     5.751000000    -5.967000000    -1.221000000
H     7.253000000    -5.832000000    -1.090000000
O     0.139000000    -6.709000000    -5.798000000
H    -0.184000000    -6.830000000    -4.906000000
H     0.516000000    -5.829000000    -5.799000000
O     4.840000000    -4.396000000    -4.007000000
H     5.330000000    -3.646000000    -4.344000000
H     4.681000000    -4.185000000    -3.087000000
O     2.128000000    -8.811000000    -1.711000000
H     2.826000000    -9.453000000    -1.841000000
H     1.319000000    -9.311000000    -1.818000000
O     4.309000000    -8.648000000    -5.141000000
H     4.924000000    -8.665000000    -4.407000000
H     3.954000000    -7.759000000    -5.135000000
O     6.825000000    -5.967000000    -5.758000000
H     7.482000000    -5.457000000    -5.284000000
H     5.987000000    -5.627000000    -5.444000000
O     1.478000000    -3.073000000     2.431000000
H     2.278000000    -3.376000000     2.002000000
H     1.082000000    -2.470000000     1.802000000
O    -1.844000000    -8.043000000    -1.685000000
H    -2.065000000    -8.401000000    -2.545000000
H    -2.659000000    -8.100000000    -1.185000000
O     5.089000000    -6.282000000     2.100000000
H     4.505000000    -6.608000000     1.415000000
H     4.695000000    -6.591000000     2.917000000
O    -1.861000000    -7.530000000     1.643000000
H    -1.290000000    -6.964000000     1.125000000
H    -2.564000000    -6.953000000     1.942000000
O     0.245000000    -5.628000000     2.617000000
H     0.259000000    -5.768000000     1.670000000
H     0.480000000    -4.706000000     2.726000000
O     6.278000000    -8.483000000    -3.299000000
H     7.202000000    -8.670000000    -3.466000000
H     6.289000000    -7.802000000    -2.626000000
O     3.708000000    -3.629000000     1.057000000
H     3.761000000    -4.584000000     1.087000000
H     3.704000000    -3.418000000     0.123000000
