218
-1460.50358
C     4.773000000     0.796000000    -2.433000000
H     4.957000000     1.759000000    -1.965000000
C     3.564000000     0.638000000    -3.077000000
C     3.234000000    -0.603000000    -3.660000000
H     2.231000000    -0.649000000    -4.077000000
C     2.590000000     1.810000000    -3.002000000
O     3.170000000     3.050000000    -2.579000000
H     1.790000000     1.559000000    -2.289000000
O     2.020000000     2.056000000    -4.295000000
C     0.643000000     2.145000000    -4.348000000
C    -0.193000000     1.050000000    -4.504000000
H     0.232000000     0.094000000    -4.799000000
C    -1.525000000     1.092000000    -4.239000000
O    -2.187000000    -0.082000000    -4.299000000
C    -2.143000000     2.243000000    -3.726000000
C    -3.611000000     2.330000000    -3.376000000
H    -3.744000000     3.413000000    -3.320000000
C    -4.096000000     1.709000000    -2.074000000
C    -4.324000000     2.574000000    -0.977000000
H    -4.108000000     3.632000000    -1.109000000
H    -4.267000000     2.104000000    -4.219000000
C    -1.372000000     3.411000000    -3.640000000
H    -1.790000000     4.390000000    -3.419000000
C     0.031000000     3.368000000    -3.903000000
C     0.871000000     4.604000000    -3.603000000
H     0.226000000     5.484000000    -3.639000000
H     1.714000000     4.779000000    -4.275000000
C     1.269000000     4.523000000    -2.076000000
C     0.464000000     5.068000000    -1.067000000
H    -0.445000000     5.578000000    -1.373000000
C     2.455000000     3.764000000    -1.683000000
C     2.798000000     3.663000000    -0.344000000
H     3.659000000     3.059000000    -0.066000000
C     1.981000000     4.185000000     0.640000000
O     2.335000000     3.891000000     1.898000000
C     1.598000000     2.832000000     2.493000000
C     2.461000000     1.906000000     3.344000000
C     2.119000000     1.558000000     4.678000000
H     1.220000000     1.986000000     5.114000000
C     3.518000000     1.272000000     2.733000000
H     3.870000000     1.628000000     1.768000000
O     0.592000000     3.511000000     3.283000000
H     1.053000000     2.192000000     1.783000000
C     0.764000000     4.877000000     0.307000000
C    -0.205000000     5.389000000     1.269000000
H    -0.795000000     6.221000000     0.879000000
H     0.468000000     5.744000000     2.053000000
C    -1.108000000     4.268000000     1.786000000
C    -2.469000000     4.238000000     1.456000000
H    -2.830000000     4.868000000     0.647000000
C    -0.676000000     3.458000000     2.848000000
C    -1.484000000     2.471000000     3.358000000
H    -0.965000000     1.730000000     3.960000000
C    -2.772000000     2.333000000     2.937000000
O    -3.449000000     1.258000000     3.394000000
C    -3.527000000     0.093000000     2.515000000
C    -3.171000000    -1.248000000     3.260000000
C    -2.554000000    -1.268000000     4.517000000
H    -2.208000000    -0.346000000     4.977000000
C    -3.552000000    -2.464000000     2.704000000
H    -4.131000000    -2.412000000     1.785000000
O    -4.751000000     0.055000000     1.726000000
H    -2.622000000     0.130000000     1.890000000
C    -3.284000000     3.252000000     1.988000000
C    -4.637000000     2.933000000     1.439000000
H    -4.978000000     3.917000000     1.108000000
H    -5.357000000     2.702000000     2.227000000
C    -4.566000000     2.027000000     0.251000000
C    -4.722000000     0.591000000     0.438000000
C    -4.561000000    -0.256000000    -0.656000000
H    -4.650000000    -1.336000000    -0.572000000
C    -4.189000000     0.339000000    -1.907000000
O    -3.877000000    -0.616000000    -2.907000000
C    -2.428000000    -0.830000000    -3.086000000
H    -1.855000000    -0.295000000    -2.315000000
C    -2.095000000    -2.296000000    -3.292000000
C    -1.296000000    -2.815000000    -4.318000000
H    -0.776000000    -2.167000000    -5.018000000
C    -2.733000000    -3.222000000    -2.398000000
H    -3.383000000    -2.849000000    -1.611000000
C    -2.544000000    -4.571000000    -2.481000000
O    -3.228000000    -5.512000000    -1.775000000
C    -1.741000000    -4.975000000    -3.540000000
H    -1.499000000    -6.031000000    -3.627000000
C    -1.102000000    -4.159000000    -4.492000000
O    -0.340000000    -4.648000000    -5.504000000
C     0.934000000    -4.229000000    -5.709000000
C     1.797000000    -3.873000000    -4.622000000
H     1.439000000    -3.979000000    -3.601000000
C     1.365000000    -4.129000000    -7.057000000
H     0.760000000    -4.464000000    -7.896000000
C     2.644000000    -3.653000000    -7.297000000
H     3.050000000    -3.537000000    -8.299000000
C     3.451000000    -3.257000000    -6.257000000
H     4.465000000    -2.916000000    -6.446000000
C     3.046000000    -3.334000000    -4.950000000
O     3.924000000    -3.026000000    -3.882000000
C     4.137000000    -1.679000000    -3.521000000
C     5.398000000    -1.487000000    -2.950000000
H     6.129000000    -2.288000000    -2.867000000
C     5.758000000    -0.263000000    -2.454000000
O     6.919000000    -0.131000000    -1.758000000
C     6.926000000     0.245000000    -0.462000000
C     5.957000000    -0.144000000     0.443000000
H     5.199000000    -0.833000000     0.079000000
C     7.807000000     1.258000000    -0.143000000
H     8.453000000     1.683000000    -0.906000000
C     7.843000000     1.706000000     1.212000000
H     8.604000000     2.408000000     1.540000000
C     7.001000000     1.099000000     2.142000000
H     7.057000000     1.280000000     3.212000000
C     5.984000000     0.301000000     1.746000000
O     5.228000000    -0.311000000     2.776000000
C     4.183000000     0.292000000     3.366000000
C     3.823000000    -0.112000000     4.639000000
H     4.339000000    -0.904000000     5.175000000
C     2.814000000     0.554000000     5.270000000
O     2.492000000     0.128000000     6.518000000
C     1.262000000    -0.150000000     6.869000000
C     0.540000000    -1.260000000     6.353000000
H     1.027000000    -1.928000000     5.647000000
C     0.641000000     0.647000000     7.821000000
H     1.165000000     1.561000000     8.087000000
C    -0.645000000     0.371000000     8.301000000
H    -1.050000000     1.095000000     9.003000000
C    -1.277000000    -0.756000000     7.857000000
H    -2.257000000    -1.083000000     8.193000000
C    -0.710000000    -1.544000000     6.814000000
O    -1.453000000    -2.579000000     6.320000000
C    -2.270000000    -2.473000000     5.190000000
C    -2.670000000    -3.643000000     4.645000000
H    -2.308000000    -4.591000000     5.034000000
C    -3.278000000    -3.659000000     3.406000000
O    -3.657000000    -4.909000000     2.917000000
C    -4.195000000    -5.204000000     1.684000000
C    -5.517000000    -5.503000000     1.558000000
H    -6.071000000    -5.673000000     2.478000000
C    -6.084000000    -5.872000000     0.333000000
H    -7.111000000    -6.225000000     0.288000000
C    -5.300000000    -5.759000000    -0.825000000
H    -5.708000000    -6.005000000    -1.803000000
C    -3.977000000    -5.344000000    -0.710000000
C    -3.406000000    -5.041000000     0.523000000
H    -2.346000000    -4.802000000     0.520000000
C    -0.331000000    -2.126000000    -0.177000000
H    -1.045000000    -2.941000000    -0.096000000
C    -0.850000000    -0.834000000    -0.214000000
H    -1.936000000    -0.806000000    -0.187000000
C    -0.019000000     0.272000000    -0.125000000
C    -0.676000000     1.574000000     0.087000000
H    -1.181000000     1.505000000     1.052000000
H     0.036000000     2.402000000     0.071000000
H    -1.456000000     1.697000000    -0.668000000
C     1.312000000     0.095000000    -0.059000000
H     1.984000000     0.944000000     0.037000000
C     1.874000000    -1.180000000    -0.136000000
H     2.932000000    -1.362000000     0.036000000
C     1.040000000    -2.327000000    -0.199000000
C     1.658000000    -3.749000000     0.005000000
O     2.770000000    -3.817000000     0.395000000
O     1.048000000    -4.758000000    -0.319000000
O     4.716000000    -7.023000000     0.763000000
H     5.190000000    -7.116000000     1.590000000
H     5.263000000    -6.438000000     0.239000000
O     7.600000000    -2.684000000     2.361000000
H     6.906000000    -2.883000000     1.732000000
H     7.769000000    -1.750000000     2.244000000
O    -0.018000000    -6.263000000     1.392000000
H    -0.658000000    -6.685000000     0.819000000
H     0.417000000    -5.620000000     0.832000000
O     2.202000000    -3.574000000     3.123000000
H     1.969000000    -2.674000000     3.353000000
H     2.300000000    -3.559000000     2.170000000
O     1.751000000    -8.835000000    -2.689000000
H     1.376000000    -7.954000000    -2.696000000
H     1.005000000    -9.411000000    -2.522000000
O     1.062000000    -6.272000000    -2.295000000
H     2.002000000    -6.113000000    -2.374000000
H     0.804000000    -5.795000000    -1.507000000
O     3.993000000    -9.042000000    -1.106000000
H     3.152000000    -8.904000000    -1.542000000
H     4.140000000    -8.237000000    -0.610000000
O     3.622000000    -5.177000000    -1.966000000
H     3.779000000    -4.406000000    -2.512000000
H     3.394000000    -4.820000000    -1.108000000
O     2.009000000    -8.739000000     4.333000000
H     1.361000000    -8.302000000     4.885000000
H     2.223000000    -8.095000000     3.658000000
O    -1.760000000    -8.591000000     2.643000000
H    -1.765000000    -8.431000000     1.699000000
H    -0.997000000    -9.152000000     2.787000000
O     2.291000000    -8.026000000     1.482000000
H     2.938000000    -7.485000000     1.029000000
H     1.449000000    -7.628000000     1.260000000
O     5.585000000    -6.431000000    -3.736000000
H     4.970000000    -6.154000000    -3.056000000
H     5.967000000    -5.616000000    -4.060000000
O     0.644000000    -1.254000000     3.002000000
H    -0.290000000    -1.459000000     2.961000000
H     0.837000000    -0.847000000     2.157000000
O    -2.087000000    -8.158000000    -0.239000000
H    -1.536000000    -8.514000000    -0.936000000
H    -2.948000000    -8.054000000    -0.644000000
O     5.661000000    -7.273000000     3.630000000
H     5.021000000    -6.625000000     3.922000000
H     6.483000000    -6.999000000     4.037000000
O     0.864000000    -5.776000000     3.999000000
H     0.596000000    -6.008000000     3.109000000
H     1.453000000    -5.030000000     3.885000000
O     6.949000000    -5.471000000    -0.826000000
H     7.214000000    -5.221000000    -1.711000000
H     7.377000000    -6.314000000    -0.677000000
O     5.403000000    -3.817000000     0.880000000
H     5.699000000    -4.436000000     0.212000000
H     4.460000000    -3.739000000     0.733000000
O     3.859000000    -5.089000000     4.957000000
H     2.958000000    -5.318000000     5.186000000
H     3.775000000    -4.322000000     4.391000000
