218
-1462.45059
C     4.766000000    -1.310000000    -1.597000000
H     4.844000000    -0.580000000    -0.795000000
C     4.079000000    -0.959000000    -2.721000000
C     3.925000000    -1.862000000    -3.778000000
H     3.307000000    -1.730000000    -4.663000000
C     3.272000000     0.305000000    -2.712000000
O     3.963000000     1.456000000    -2.211000000
H     2.402000000     0.175000000    -2.051000000
O     2.855000000     0.640000000    -4.086000000
C     1.611000000     1.141000000    -4.358000000
C     0.658000000     0.260000000    -4.852000000
H     0.923000000    -0.787000000    -4.979000000
C    -0.666000000     0.685000000    -4.919000000
O    -1.566000000    -0.303000000    -4.762000000
C    -1.001000000     1.999000000    -4.618000000
C    -2.529000000     2.349000000    -4.439000000
H    -2.668000000     3.354000000    -4.841000000
C    -2.969000000     2.229000000    -3.011000000
C    -2.953000000     3.333000000    -2.151000000
H    -2.580000000     4.278000000    -2.537000000
H    -3.137000000     1.679000000    -5.051000000
C    -0.078000000     2.932000000    -4.233000000
H    -0.354000000     3.972000000    -4.078000000
C     1.250000000     2.487000000    -4.082000000
C     2.267000000     3.517000000    -3.582000000
H     1.943000000     4.505000000    -3.916000000
H     3.257000000     3.360000000    -4.016000000
C     2.515000000     3.386000000    -2.086000000
C     1.947000000     4.370000000    -1.260000000
H     1.288000000     5.166000000    -1.599000000
C     3.307000000     2.404000000    -1.497000000
C     3.506000000     2.362000000    -0.151000000
H     4.083000000     1.521000000     0.227000000
C     2.825000000     3.277000000     0.680000000
O     2.941000000     3.135000000     2.036000000
C     1.866000000     2.519000000     2.662000000
C     2.283000000     1.441000000     3.602000000
C     1.538000000     1.181000000     4.718000000
H     0.626000000     1.710000000     4.986000000
C     3.408000000     0.578000000     3.321000000
H     3.955000000     0.852000000     2.422000000
O     1.074000000     3.518000000     3.313000000
H     1.230000000     2.018000000     1.918000000
C     2.080000000     4.306000000     0.120000000
C     1.346000000     5.312000000     0.947000000
H     1.296000000     6.236000000     0.368000000
H     1.974000000     5.565000000     1.804000000
C     0.033000000     4.693000000     1.426000000
C    -1.106000000     4.746000000     0.638000000
H    -1.071000000     5.261000000    -0.319000000
C     0.000000000     3.950000000     2.622000000
C    -1.215000000     3.300000000     2.950000000
H    -1.310000000     2.765000000     3.891000000
C    -2.402000000     3.508000000     2.185000000
O    -3.512000000     2.806000000     2.575000000
C    -3.827000000     1.527000000     1.849000000
C    -4.342000000     0.494000000     2.905000000
C    -3.913000000     0.474000000     4.226000000
H    -3.181000000     1.187000000     4.598000000
C    -5.115000000    -0.574000000     2.406000000
H    -5.390000000    -0.708000000     1.363000000
O    -4.705000000     1.744000000     0.808000000
H    -2.869000000     1.139000000     1.473000000
C    -2.382000000     4.263000000     0.978000000
C    -3.567000000     4.437000000     0.058000000
H    -3.305000000     5.380000000    -0.427000000
H    -4.490000000     4.558000000     0.628000000
C    -3.551000000     3.207000000    -0.830000000
C    -4.161000000     1.989000000    -0.427000000
C    -4.118000000     0.966000000    -1.311000000
H    -4.593000000     0.036000000    -1.007000000
C    -3.529000000     1.053000000    -2.522000000
O    -3.316000000    -0.130000000    -3.218000000
C    -1.892000000    -0.567000000    -3.390000000
H    -1.401000000     0.144000000    -2.710000000
C    -1.655000000    -1.957000000    -2.870000000
C    -0.788000000    -2.881000000    -3.600000000
H    -0.360000000    -2.616000000    -4.564000000
C    -2.261000000    -2.398000000    -1.688000000
H    -2.902000000    -1.690000000    -1.169000000
C    -2.165000000    -3.721000000    -1.292000000
O    -2.760000000    -4.143000000    -0.167000000
C    -1.380000000    -4.600000000    -1.985000000
H    -1.436000000    -5.644000000    -1.688000000
C    -0.681000000    -4.183000000    -3.113000000
O    -0.187000000    -5.218000000    -3.789000000
C     0.811000000    -5.064000000    -4.733000000
C     2.080000000    -4.751000000    -4.241000000
H     2.277000000    -4.845000000    -3.176000000
C     0.486000000    -4.961000000    -6.097000000
H    -0.547000000    -5.153000000    -6.377000000
C     1.525000000    -4.610000000    -6.981000000
H     1.354000000    -4.592000000    -8.054000000
C     2.813000000    -4.407000000    -6.497000000
H     3.627000000    -4.239000000    -7.197000000
C     3.077000000    -4.412000000    -5.115000000
O     4.321000000    -4.107000000    -4.579000000
C     4.507000000    -3.142000000    -3.660000000
C     5.257000000    -3.444000000    -2.514000000
H     5.656000000    -4.429000000    -2.284000000
C     5.409000000    -2.485000000    -1.523000000
O     6.031000000    -2.889000000    -0.341000000
C     6.183000000    -2.023000000     0.737000000
C     5.356000000    -2.102000000     1.866000000
H     4.523000000    -2.797000000     1.930000000
C     7.145000000    -1.056000000     0.580000000
H     7.838000000    -1.211000000    -0.242000000
C     7.334000000    -0.141000000     1.566000000
H     8.045000000     0.673000000     1.449000000
C     6.549000000    -0.200000000     2.717000000
H     6.708000000     0.540000000     3.497000000
C     5.606000000    -1.223000000     2.884000000
O     4.794000000    -1.273000000     4.001000000
C     3.700000000    -0.513000000     4.159000000
C     2.924000000    -0.777000000     5.254000000
H     3.206000000    -1.568000000     5.944000000
C     1.899000000     0.106000000     5.536000000
O     1.167000000    -0.150000000     6.677000000
C    -0.110000000     0.260000000     6.883000000
C    -1.196000000    -0.483000000     6.415000000
H    -1.087000000    -1.419000000     5.874000000
C    -0.307000000     1.483000000     7.487000000
H     0.521000000     2.131000000     7.765000000
C    -1.548000000     1.913000000     7.745000000
H    -1.664000000     2.877000000     8.233000000
C    -2.602000000     1.226000000     7.292000000
H    -3.567000000     1.586000000     7.642000000
C    -2.472000000    -0.026000000     6.656000000
O    -3.626000000    -0.776000000     6.253000000
C    -4.299000000    -0.570000000     5.062000000
C    -5.217000000    -1.526000000     4.588000000
H    -5.399000000    -2.338000000     5.287000000
C    -5.594000000    -1.599000000     3.302000000
O    -6.219000000    -2.719000000     2.811000000
C    -5.837000000    -3.339000000     1.609000000
C    -6.804000000    -3.769000000     0.690000000
H    -7.846000000    -3.617000000     0.959000000
C    -6.475000000    -4.275000000    -0.546000000
H    -7.254000000    -4.590000000    -1.236000000
C    -5.090000000    -4.297000000    -0.818000000
H    -4.735000000    -4.822000000    -1.701000000
C    -4.104000000    -4.022000000     0.132000000
C    -4.508000000    -3.439000000     1.327000000
H    -3.754000000    -3.150000000     2.054000000
C    -0.056000000    -2.260000000     3.120000000
H    -0.502000000    -2.468000000     4.090000000
C    -0.560000000    -1.243000000     2.269000000
H    -1.347000000    -0.576000000     2.612000000
C     0.106000000    -1.012000000     1.025000000
C    -0.320000000     0.060000000     0.092000000
H     0.076000000     0.920000000     0.636000000
H     0.203000000    -0.079000000    -0.856000000
H    -1.400000000    -0.060000000    -0.017000000
C     1.083000000    -1.961000000     0.648000000
H     1.568000000    -1.887000000    -0.322000000
C     1.651000000    -2.880000000     1.546000000
H     2.513000000    -3.493000000     1.295000000
C     1.133000000    -2.932000000     2.826000000
C     1.753000000    -3.901000000     3.864000000
O     2.817000000    -4.390000000     3.643000000
O     1.203000000    -4.185000000     4.887000000
O     5.372000000    -4.230000000     4.066000000
H     4.456000000    -4.365000000     3.819000000
H     5.393000000    -3.346000000     4.432000000
O     2.589000000    -0.803000000     9.225000000
H     2.960000000     0.079000000     9.205000000
H     2.067000000    -0.861000000     8.425000000
O    -3.268000000    -4.877000000     7.234000000
H    -2.357000000    -4.992000000     6.962000000
H    -3.529000000    -5.736000000     7.566000000
O    -1.075000000    -9.360000000     3.156000000
H    -0.183000000    -9.016000000     3.207000000
H    -1.631000000    -8.622000000     3.406000000
O    -0.423000000    -5.460000000     0.966000000
H    -1.149000000    -4.939000000     0.622000000
H     0.357000000    -5.076000000     0.567000000
O     3.003000000    -6.263000000     1.785000000
H     2.863000000    -5.757000000     2.585000000
H     3.947000000    -6.421000000     1.764000000
O     7.525000000    -5.484000000     2.011000000
H     6.895000000    -5.013000000     2.557000000
H     7.030000000    -5.723000000     1.227000000
O     4.799000000    -7.694000000     3.492000000
H     4.945000000    -8.605000000     3.238000000
H     5.550000000    -7.475000000     4.044000000
O     2.028000000    -6.153000000    -0.568000000
H     2.305000000    -6.294000000     0.337000000
H     2.567000000    -6.755000000    -1.080000000
O     1.630000000    -8.787000000     3.190000000
H     2.105000000    -8.000000000     2.924000000
H     2.208000000    -9.215000000     3.821000000
O     3.372000000    -6.251000000     5.637000000
H     2.999000000    -5.513000000     5.155000000
H     3.821000000    -6.771000000     4.971000000
O    -1.265000000    -3.040000000     8.434000000
H    -1.805000000    -3.554000000     7.834000000
H    -1.801000000    -2.948000000     9.221000000
O    -0.891000000    -5.470000000     5.981000000
H    -0.608000000    -6.156000000     6.585000000
H    -0.092000000    -5.212000000     5.520000000
O     0.535000000    -4.975000000     9.429000000
H     0.972000000    -5.105000000     8.587000000
H     0.026000000    -4.173000000     9.314000000
O     6.591000000    -6.708000000     5.310000000
H     6.203000000    -5.885000000     5.015000000
H     7.530000000    -6.527000000     5.358000000
O    -1.798000000    -6.501000000     3.593000000
H    -1.594000000    -5.928000000     4.332000000
H    -1.104000000    -6.328000000     2.957000000
O     3.828000000    -5.278000000     8.161000000
H     3.233000000    -4.587000000     7.871000000
H     3.811000000    -5.922000000     7.452000000
O     1.895000000    -3.266000000     7.184000000
H     1.012000000    -3.085000000     7.507000000
H     1.766000000    -3.536000000     6.274000000
O     1.147000000    -7.080000000     7.276000000
H     1.622000000    -7.008000000     6.448000000
H     1.755000000    -7.531000000     7.862000000
