218
-1449.23955
C     4.957000000    -1.177000000    -0.029000000
H     5.314000000    -0.197000000     0.276000000
C     4.079000000    -1.279000000    -1.090000000
C     3.538000000    -2.493000000    -1.434000000
H     2.735000000    -2.508000000    -2.166000000
C     3.626000000     0.064000000    -1.660000000
O     4.455000000     1.145000000    -1.280000000
H     2.585000000     0.236000000    -1.349000000
O     3.586000000     0.012000000    -3.081000000
C     2.423000000     0.438000000    -3.659000000
C     1.513000000    -0.549000000    -3.990000000
H     1.627000000    -1.625000000    -3.882000000
C     0.285000000    -0.041000000    -4.415000000
O    -0.604000000    -1.009000000    -4.729000000
C     0.010000000     1.328000000    -4.491000000
C    -1.295000000     1.739000000    -5.127000000
H    -1.179000000     2.682000000    -5.665000000
C    -2.418000000     1.805000000    -4.097000000
C    -2.549000000     2.935000000    -3.328000000
H    -1.901000000     3.782000000    -3.537000000
H    -1.588000000     0.972000000    -5.847000000
C     1.040000000     2.295000000    -4.320000000
H     0.899000000     3.349000000    -4.548000000
C     2.244000000     1.809000000    -3.819000000
C     3.342000000     2.808000000    -3.452000000
H     3.184000000     3.731000000    -4.014000000
H     4.339000000     2.443000000    -3.709000000
C     3.225000000     3.104000000    -1.998000000
C     2.324000000     4.127000000    -1.508000000
H     1.655000000     4.671000000    -2.171000000
C     3.773000000     2.279000000    -1.005000000
C     3.605000000     2.536000000     0.378000000
H     4.021000000     1.794000000     1.054000000
C     2.754000000     3.617000000     0.772000000
O     2.753000000     3.838000000     2.137000000
C     1.548000000     3.342000000     2.735000000
C     1.748000000     2.629000000     4.003000000
C     0.910000000     2.650000000     5.108000000
H    -0.022000000     3.208000000     5.150000000
C     2.793000000     1.695000000     3.984000000
H     3.387000000     1.565000000     3.083000000
O     0.583000000     4.447000000     2.789000000
H     1.124000000     2.592000000     2.051000000
C     2.204000000     4.431000000    -0.201000000
C     1.292000000     5.588000000     0.118000000
H     1.158000000     6.265000000    -0.728000000
H     1.741000000     6.196000000     0.906000000
C    -0.115000000     5.120000000     0.462000000
C    -1.142000000     5.044000000    -0.514000000
H    -1.043000000     5.342000000    -1.555000000
C    -0.389000000     4.652000000     1.752000000
C    -1.558000000     3.935000000     2.078000000
H    -1.606000000     3.531000000     3.085000000
C    -2.481000000     3.722000000     1.058000000
O    -3.515000000     2.882000000     1.221000000
C    -3.577000000     1.561000000     0.601000000
C    -3.848000000     0.402000000     1.542000000
C    -3.010000000     0.176000000     2.628000000
H    -2.183000000     0.842000000     2.862000000
C    -4.891000000    -0.506000000     1.207000000
H    -5.531000000    -0.393000000     0.336000000
O    -4.477000000     1.742000000    -0.518000000
H    -2.619000000     1.373000000     0.093000000
C    -2.333000000     4.374000000    -0.203000000
C    -3.359000000     4.267000000    -1.343000000
H    -3.189000000     5.177000000    -1.923000000
H    -4.396000000     4.286000000    -0.998000000
C    -3.305000000     2.960000000    -2.169000000
C    -3.965000000     1.793000000    -1.739000000
C    -3.818000000     0.634000000    -2.437000000
H    -4.248000000    -0.338000000    -2.210000000
C    -3.125000000     0.601000000    -3.695000000
O    -2.843000000    -0.617000000    -4.259000000
C    -1.682000000    -1.343000000    -3.851000000
H    -1.410000000    -1.000000000    -2.842000000
C    -1.850000000    -2.830000000    -3.691000000
C    -0.854000000    -3.824000000    -4.001000000
H     0.085000000    -3.496000000    -4.439000000
C    -3.118000000    -3.310000000    -3.194000000
H    -4.001000000    -2.766000000    -2.867000000
C    -3.256000000    -4.725000000    -2.969000000
O    -4.454000000    -5.104000000    -2.384000000
C    -2.301000000    -5.705000000    -3.316000000
H    -2.455000000    -6.726000000    -2.975000000
C    -1.103000000    -5.222000000    -3.784000000
O    -0.062000000    -6.198000000    -4.014000000
C     1.247000000    -5.899000000    -3.706000000
C     1.689000000    -5.588000000    -2.423000000
H     0.919000000    -5.446000000    -1.668000000
C     2.175000000    -5.933000000    -4.754000000
H     1.869000000    -6.124000000    -5.779000000
C     3.502000000    -5.461000000    -4.515000000
H     4.176000000    -5.194000000    -5.325000000
C     3.886000000    -5.084000000    -3.237000000
H     4.905000000    -4.737000000    -3.085000000
C     3.047000000    -5.197000000    -2.133000000
O     3.468000000    -4.847000000    -0.890000000
C     4.053000000    -3.621000000    -0.707000000
C     4.981000000    -3.522000000     0.330000000
H     5.323000000    -4.379000000     0.905000000
C     5.497000000    -2.300000000     0.554000000
O     6.388000000    -2.112000000     1.502000000
C     6.203000000    -1.065000000     2.398000000
C     5.219000000    -1.021000000     3.383000000
H     4.509000000    -1.843000000     3.357000000
C     7.137000000    -0.066000000     2.468000000
H     7.939000000    -0.241000000     1.755000000
C     7.057000000     0.998000000     3.371000000
H     7.925000000     1.650000000     3.434000000
C     5.995000000     1.117000000     4.234000000
H     5.989000000     1.930000000     4.955000000
C     5.138000000     0.044000000     4.296000000
O     4.067000000    -0.005000000     5.155000000
C     3.077000000     0.948000000     5.162000000
C     2.294000000     1.024000000     6.275000000
H     2.407000000     0.424000000     7.174000000
C     1.174000000     1.892000000     6.267000000
O     0.150000000     1.774000000     7.260000000
C    -1.117000000     1.296000000     6.857000000
C    -1.285000000     0.321000000     5.909000000
H    -0.422000000    -0.037000000     5.352000000
C    -2.238000000     1.785000000     7.551000000
H    -2.152000000     2.546000000     8.323000000
C    -3.487000000     1.324000000     7.238000000
H    -4.349000000     1.746000000     7.747000000
C    -3.694000000     0.358000000     6.268000000
H    -4.704000000     0.002000000     6.082000000
C    -2.556000000    -0.196000000     5.652000000
O    -2.675000000    -1.180000000     4.694000000
C    -3.318000000    -0.944000000     3.476000000
C    -4.374000000    -1.794000000     3.171000000
H    -4.612000000    -2.595000000     3.866000000
C    -5.032000000    -1.652000000     1.994000000
O    -5.960000000    -2.682000000     1.639000000
C    -6.114000000    -3.124000000     0.371000000
C    -7.271000000    -2.692000000    -0.332000000
H    -7.915000000    -1.950000000     0.134000000
C    -7.452000000    -3.044000000    -1.652000000
H    -8.329000000    -2.726000000    -2.210000000
C    -6.509000000    -3.820000000    -2.336000000
H    -6.799000000    -4.064000000    -3.354000000
C    -5.372000000    -4.321000000    -1.641000000
C    -5.180000000    -3.974000000    -0.261000000
H    -4.265000000    -4.274000000     0.243000000
C    -0.374000000    -3.365000000     0.598000000
H    -1.036000000    -4.222000000     0.500000000
C    -0.595000000    -2.158000000    -0.048000000
H    -1.504000000    -2.078000000    -0.638000000
C     0.234000000    -1.071000000     0.192000000
C    -0.046000000     0.271000000    -0.385000000
H     0.816000000     0.609000000    -0.964000000
H    -1.008000000     0.348000000    -0.896000000
H    -0.156000000     1.030000000     0.392000000
C     1.326000000    -1.157000000     1.019000000
H     2.076000000    -0.374000000     1.090000000
C     1.640000000    -2.376000000     1.581000000
H     2.457000000    -2.355000000     2.297000000
C     0.775000000    -3.450000000     1.440000000
C     0.824000000    -4.612000000     2.375000000
O     1.346000000    -4.362000000     3.453000000
O     0.116000000    -5.590000000     2.281000000
O    -1.356000000    -9.451000000    -0.956000000
H    -0.571000000    -9.507000000    -1.501000000
H    -1.210000000    -8.681000000    -0.406000000
O     3.937000000    -4.346000000     4.355000000
H     3.026000000    -4.400000000     4.067000000
H     4.430000000    -4.815000000     3.682000000
O    -1.690000000    -9.377000000     2.144000000
H    -1.361000000    -8.629000000     1.645000000
H    -1.028000000   -10.057000000     2.021000000
O    -0.479000000    -7.538000000     0.619000000
H     0.423000000    -7.858000000     0.630000000
H    -0.446000000    -6.710000000     1.098000000
O     1.320000000    -5.606000000     5.812000000
H     1.167000000    -5.030000000     5.063000000
H     0.679000000    -5.323000000     6.465000000
O     0.900000000    -7.553000000     3.912000000
H     1.031000000    -7.065000000     4.724000000
H     0.605000000    -6.895000000     3.282000000
O     0.399000000    -9.924000000     5.365000000
H     0.734000000   -10.771000000     5.071000000
H     0.378000000    -9.387000000     4.573000000
O     4.016000000    -8.692000000     3.778000000
H     3.192000000    -8.508000000     4.229000000
H     4.238000000    -7.870000000     3.341000000
O     0.110000000    -4.801000000     8.002000000
H    -0.043000000    -5.692000000     8.317000000
H     0.119000000    -4.265000000     8.796000000
O     2.181000000    -8.548000000     0.407000000
H     2.762000000    -7.801000000     0.555000000
H     2.096000000    -8.601000000    -0.544000000
O     3.755000000    -6.538000000     6.164000000
H     4.273000000    -5.923000000     5.645000000
H     2.858000000    -6.210000000     6.099000000
O     2.696000000    -2.296000000     7.192000000
H     2.127000000    -1.892000000     6.537000000
H     2.277000000    -3.133000000     7.391000000
O    -1.645000000    -3.531000000     6.179000000
H    -1.152000000    -2.748000000     5.933000000
H    -1.171000000    -3.886000000     6.931000000
O     5.102000000    -6.362000000     2.527000000
H     5.962000000    -6.302000000     2.943000000
H     5.264000000    -6.827000000     1.707000000
O    -2.470000000    -5.457000000     3.958000000
H    -1.806000000    -5.301000000     3.287000000
H    -2.078000000    -5.120000000     4.764000000
O    -4.080000000    -4.739000000     6.612000000
H    -3.389000000    -4.213000000     6.209000000
H    -3.634000000    -5.231000000     7.302000000
O    -4.234000000    -7.203000000     2.782000000
H    -3.853000000    -6.340000000     2.942000000
H    -3.479000000    -7.787000000     2.700000000
O    -2.512000000    -8.228000000     5.118000000
H    -1.593000000    -8.301000000     4.861000000
H    -2.860000000    -7.527000000     4.568000000
O     0.216000000    -2.162000000     4.489000000
H    -0.589000000    -2.026000000     3.989000000
H     0.706000000    -2.809000000     3.981000000
