218
-1472.30950
C     3.944000000    -2.014000000    -0.688000000
H     4.030000000    -1.187000000     0.012000000
C     3.721000000    -1.635000000    -1.985000000
C     3.517000000    -2.637000000    -2.950000000
H     3.179000000    -2.360000000    -3.945000000
C     3.367000000    -0.222000000    -2.326000000
O     4.264000000     0.700000000    -1.759000000
H     2.341000000    -0.173000000    -1.932000000
O     3.336000000     0.080000000    -3.775000000
C     2.170000000     0.720000000    -4.196000000
C     1.028000000     0.029000000    -4.607000000
H     0.996000000    -1.054000000    -4.696000000
C    -0.200000000     0.726000000    -4.700000000
O    -1.302000000    -0.065000000    -4.795000000
C    -0.265000000     2.054000000    -4.414000000
C    -1.574000000     2.790000000    -4.466000000
H    -1.345000000     3.852000000    -4.580000000
C    -2.355000000     2.631000000    -3.139000000
C    -2.322000000     3.695000000    -2.267000000
H    -1.679000000     4.515000000    -2.578000000
H    -2.127000000     2.486000000    -5.358000000
C     0.853000000     2.764000000    -4.048000000
H     0.806000000     3.839000000    -3.895000000
C     2.092000000     2.110000000    -3.952000000
C     3.263000000     2.891000000    -3.441000000
H     3.301000000     3.914000000    -3.821000000
H     4.221000000     2.476000000    -3.762000000
C     3.243000000     2.952000000    -1.841000000
C     2.647000000     4.001000000    -1.177000000
H     2.133000000     4.769000000    -1.749000000
C     3.795000000     1.821000000    -1.148000000
C     3.920000000     1.908000000     0.210000000
H     4.368000000     1.141000000     0.837000000
C     3.497000000     3.079000000     0.899000000
O     3.449000000     2.955000000     2.274000000
C     2.247000000     2.365000000     2.836000000
C     2.613000000     1.448000000     3.978000000
C     1.657000000     1.006000000     4.929000000
H     0.670000000     1.450000000     4.827000000
C     3.809000000     0.683000000     3.889000000
H     4.529000000     0.951000000     3.120000000
O     1.458000000     3.466000000     3.311000000
H     1.662000000     1.733000000     2.150000000
C     2.782000000     4.039000000     0.217000000
C     2.123000000     5.199000000     0.989000000
H     2.257000000     6.159000000     0.487000000
H     2.710000000     5.336000000     1.900000000
C     0.689000000     4.748000000     1.372000000
C    -0.404000000     5.016000000     0.561000000
H    -0.179000000     5.696000000    -0.257000000
C     0.459000000     3.954000000     2.515000000
C    -0.861000000     3.570000000     2.832000000
H    -1.010000000     3.014000000     3.754000000
C    -1.866000000     3.720000000     1.919000000
O    -3.103000000     3.226000000     2.161000000
C    -3.608000000     2.023000000     1.504000000
C    -4.069000000     0.951000000     2.402000000
C    -3.669000000     0.852000000     3.733000000
H    -3.142000000     1.678000000     4.204000000
C    -4.843000000    -0.081000000     1.852000000
H    -5.088000000    -0.077000000     0.793000000
O    -4.504000000     2.430000000     0.479000000
H    -2.715000000     1.549000000     1.070000000
C    -1.644000000     4.450000000     0.729000000
C    -2.888000000     4.809000000    -0.061000000
H    -2.699000000     5.742000000    -0.595000000
H    -3.778000000     4.953000000     0.555000000
C    -3.056000000     3.644000000    -1.098000000
C    -3.886000000     2.543000000    -0.781000000
C    -3.847000000     1.401000000    -1.613000000
H    -4.433000000     0.511000000    -1.397000000
C    -3.119000000     1.471000000    -2.804000000
O    -3.250000000     0.448000000    -3.590000000
C    -2.077000000    -0.368000000    -3.645000000
H    -1.427000000    -0.132000000    -2.791000000
C    -2.473000000    -1.834000000    -3.628000000
C    -1.802000000    -2.801000000    -4.283000000
H    -1.021000000    -2.482000000    -4.968000000
C    -3.523000000    -2.359000000    -2.814000000
H    -4.128000000    -1.668000000    -2.232000000
C    -3.849000000    -3.715000000    -2.767000000
O    -4.772000000    -4.289000000    -1.902000000
C    -3.107000000    -4.645000000    -3.491000000
H    -3.285000000    -5.712000000    -3.387000000
C    -2.062000000    -4.154000000    -4.226000000
O    -1.336000000    -4.994000000    -4.964000000
C    -0.003000000    -4.878000000    -5.246000000
C     0.899000000    -4.997000000    -4.184000000
H     0.462000000    -5.092000000    -3.193000000
C     0.448000000    -4.532000000    -6.511000000
H    -0.279000000    -4.433000000    -7.313000000
C     1.790000000    -4.212000000    -6.675000000
H     2.205000000    -4.062000000    -7.669000000
C     2.716000000    -4.425000000    -5.695000000
H     3.779000000    -4.287000000    -5.875000000
C     2.192000000    -4.752000000    -4.459000000
O     3.078000000    -5.004000000    -3.419000000
C     3.508000000    -3.981000000    -2.536000000
C     3.941000000    -4.381000000    -1.223000000
H     4.082000000    -5.425000000    -0.957000000
C     4.178000000    -3.354000000    -0.297000000
O     4.540000000    -3.717000000     0.973000000
C     5.455000000    -2.967000000     1.703000000
C     4.900000000    -2.326000000     2.812000000
H     3.833000000    -2.418000000     2.995000000
C     6.770000000    -2.794000000     1.335000000
H     7.124000000    -3.215000000     0.398000000
C     7.653000000    -2.031000000     2.111000000
H     8.685000000    -1.869000000     1.811000000
C     7.133000000    -1.411000000     3.229000000
H     7.714000000    -0.777000000     3.894000000
C     5.779000000    -1.559000000     3.607000000
O     5.264000000    -0.997000000     4.765000000
C     4.079000000    -0.392000000     4.744000000
C     3.158000000    -0.723000000     5.710000000
H     3.421000000    -1.495000000     6.429000000
C     1.917000000    -0.077000000     5.786000000
O     0.977000000    -0.542000000     6.710000000
C    -0.145000000     0.172000000     6.942000000
C    -1.318000000    -0.198000000     6.301000000
H    -1.299000000    -1.121000000     5.727000000
C    -0.110000000     1.299000000     7.648000000
H     0.859000000     1.647000000     7.997000000
C    -1.284000000     2.072000000     7.887000000
H    -1.343000000     3.063000000     8.329000000
C    -2.473000000     1.591000000     7.364000000
H    -3.366000000     2.191000000     7.522000000
C    -2.508000000     0.435000000     6.568000000
O    -3.768000000    -0.003000000     6.027000000
C    -3.966000000    -0.150000000     4.640000000
C    -4.698000000    -1.201000000     4.071000000
H    -4.857000000    -2.097000000     4.665000000
C    -5.084000000    -1.192000000     2.696000000
O    -5.999000000    -2.192000000     2.282000000
C    -6.257000000    -2.556000000     0.957000000
C    -7.476000000    -2.132000000     0.398000000
H    -8.156000000    -1.578000000     1.041000000
C    -7.718000000    -2.415000000    -0.925000000
H    -8.576000000    -1.925000000    -1.378000000
C    -6.811000000    -3.170000000    -1.676000000
H    -7.023000000    -3.391000000    -2.719000000
C    -5.638000000    -3.619000000    -1.097000000
C    -5.329000000    -3.227000000     0.235000000
H    -4.446000000    -3.620000000     0.733000000
C     0.548000000    -1.854000000     2.217000000
H     0.711000000    -1.871000000     3.292000000
C     0.344000000    -0.614000000     1.683000000
H     0.319000000     0.242000000     2.352000000
C     0.247000000    -0.575000000     0.298000000
C     0.124000000     0.775000000    -0.340000000
H    -0.677000000     0.687000000    -1.077000000
H    -0.140000000     1.566000000     0.365000000
H     0.923000000     1.142000000    -0.987000000
C     0.498000000    -1.664000000    -0.512000000
H     0.639000000    -1.594000000    -1.588000000
C     0.581000000    -2.929000000     0.116000000
H     0.792000000    -3.743000000    -0.573000000
C     0.580000000    -3.053000000     1.542000000
C     0.731000000    -4.355000000     2.282000000
O     0.567000000    -5.373000000     1.646000000
O     1.009000000    -4.416000000     3.457000000
O     1.515000000    -9.270000000     5.577000000
H     1.597000000    -9.781000000     4.772000000
H     1.178000000    -8.422000000     5.289000000
O    -2.320000000    -3.332000000     1.828000000
H    -1.777000000    -2.744000000     2.352000000
H    -2.157000000    -3.067000000     0.923000000
O     3.077000000    -6.146000000     2.627000000
H     2.510000000    -5.548000000     3.115000000
H     3.649000000    -5.571000000     2.117000000
O    -1.436000000    -6.187000000     0.221000000
H    -0.823000000    -5.961000000     0.920000000
H    -0.913000000    -6.145000000    -0.579000000
O    -4.046000000    -5.772000000     2.361000000
H    -3.334000000    -6.343000000     2.651000000
H    -3.605000000    -5.038000000     1.933000000
O     1.281000000    -6.651000000    -0.829000000
H     1.355000000    -6.059000000    -0.081000000
H     2.176000000    -6.954000000    -0.983000000
O     1.334000000    -8.357000000     2.237000000
H     1.121000000    -8.304000000     1.305000000
H     1.657000000    -7.483000000     2.459000000
O     0.083000000    -9.348000000    -0.406000000
H    -0.394000000    -9.621000000    -1.189000000
H     0.480000000    -8.511000000    -0.647000000
O     4.416000000    -8.519000000     2.148000000
H     4.197000000    -8.415000000     1.222000000
H     3.912000000    -7.837000000     2.592000000
O    -3.863000000    -4.245000000     4.669000000
H    -4.006000000    -4.799000000     3.902000000
H    -2.912000000    -4.146000000     4.719000000
O     3.740000000    -7.706000000    -0.853000000
H     3.587000000    -8.424000000    -1.467000000
H     4.603000000    -7.366000000    -1.092000000
O     4.358000000    -3.982000000     7.539000000
H     3.580000000    -4.028000000     6.982000000
H     5.088000000    -4.159000000     6.945000000
O    -2.080000000    -7.109000000     3.670000000
H    -1.185000000    -7.328000000     3.410000000
H    -1.976000000    -6.458000000     4.364000000
O    -1.179000000    -4.444000000     5.072000000
H    -0.894000000    -3.812000000     5.731000000
H    -0.500000000    -4.411000000     4.398000000
O     0.693000000    -6.716000000     4.918000000
H     0.745000000    -6.392000000     5.817000000
H     0.888000000    -5.951000000     4.376000000
O     0.088000000    -3.084000000     7.038000000
H     0.518000000    -2.232000000     7.106000000
H     0.082000000    -3.421000000     7.934000000
O    -3.752000000    -6.991000000    -0.842000000
H    -4.408000000    -6.345000000    -0.581000000
H    -2.921000000    -6.623000000    -0.543000000
O     6.058000000    -6.131000000     4.133000000
H     5.299000000    -6.286000000     4.695000000
H     6.394000000    -7.005000000     3.937000000
O     2.344000000    -3.814000000     5.846000000
H     1.475000000    -3.736000000     6.240000000
H     2.175000000    -3.891000000     4.907000000
