218
-1466.94549
C     4.273000000    -1.768000000    -0.866000000
H     4.469000000    -1.041000000    -0.082000000
C     3.790000000    -1.288000000    -2.096000000
C     3.394000000    -2.262000000    -3.037000000
H     2.977000000    -1.932000000    -3.986000000
C     3.505000000     0.172000000    -2.276000000
O     4.487000000     0.943000000    -1.538000000
H     2.511000000     0.123000000    -1.809000000
O     3.476000000     0.479000000    -3.663000000
C     2.316000000     1.165000000    -3.912000000
C     1.225000000     0.471000000    -4.280000000
H     1.201000000    -0.614000000    -4.339000000
C    -0.053000000     1.043000000    -4.312000000
O    -1.120000000     0.244000000    -4.648000000
C    -0.228000000     2.419000000    -4.115000000
C    -1.583000000     3.124000000    -4.264000000
H    -1.486000000     4.202000000    -4.409000000
C    -2.490000000     2.912000000    -3.026000000
C    -2.390000000     3.861000000    -1.976000000
H    -1.729000000     4.720000000    -2.056000000
H    -2.199000000     2.882000000    -5.133000000
C     0.862000000     3.159000000    -3.692000000
H     0.706000000     4.225000000    -3.551000000
C     2.142000000     2.557000000    -3.583000000
C     3.296000000     3.350000000    -3.064000000
H     3.261000000     4.410000000    -3.322000000
H     4.215000000     2.919000000    -3.466000000
C     3.309000000     3.173000000    -1.514000000
C     2.641000000     4.108000000    -0.757000000
H     2.105000000     4.902000000    -1.272000000
C     4.068000000     2.096000000    -0.857000000
C     4.108000000     2.109000000     0.527000000
H     4.648000000     1.325000000     1.051000000
C     3.399000000     3.077000000     1.255000000
O     3.401000000     2.918000000     2.637000000
C     2.243000000     2.194000000     3.045000000
C     2.471000000     1.092000000     4.111000000
C     1.551000000     0.738000000     5.110000000
H     0.672000000     1.358000000     5.264000000
C     3.635000000     0.345000000     4.051000000
H     4.386000000     0.629000000     3.319000000
O     1.147000000     3.031000000     3.543000000
H     1.886000000     1.663000000     2.151000000
C     2.693000000     4.131000000     0.649000000
C     1.905000000     5.070000000     1.546000000
H     1.916000000     6.058000000     1.081000000
H     2.420000000     5.250000000     2.492000000
C     0.478000000     4.525000000     1.717000000
C    -0.644000000     5.014000000     0.991000000
H    -0.489000000     5.776000000     0.231000000
C     0.161000000     3.515000000     2.711000000
C    -1.139000000     3.062000000     3.046000000
H    -1.386000000     2.288000000     3.768000000
C    -2.154000000     3.567000000     2.282000000
O    -3.360000000     2.963000000     2.525000000
C    -3.670000000     1.842000000     1.715000000
C    -4.191000000     0.634000000     2.504000000
C    -3.930000000     0.459000000     3.843000000
H    -3.595000000     1.356000000     4.358000000
C    -4.674000000    -0.507000000     1.811000000
H    -4.713000000    -0.449000000     0.726000000
O    -4.523000000     2.287000000     0.615000000
H    -2.767000000     1.507000000     1.184000000
C    -1.916000000     4.475000000     1.248000000
C    -3.055000000     4.870000000     0.292000000
H    -2.700000000     5.785000000    -0.187000000
H    -3.970000000     5.037000000     0.864000000
C    -3.105000000     3.760000000    -0.798000000
C    -3.877000000     2.602000000    -0.588000000
C    -3.988000000     1.576000000    -1.536000000
H    -4.631000000     0.729000000    -1.313000000
C    -3.251000000     1.752000000    -2.759000000
O    -3.210000000     0.677000000    -3.565000000
C    -2.065000000    -0.248000000    -3.685000000
H    -1.525000000    -0.437000000    -2.745000000
C    -2.515000000    -1.622000000    -4.005000000
C    -1.621000000    -2.540000000    -4.567000000
H    -0.710000000    -2.137000000    -5.000000000
C    -3.598000000    -2.175000000    -3.352000000
H    -4.331000000    -1.583000000    -2.809000000
C    -3.907000000    -3.511000000    -3.405000000
O    -5.096000000    -4.082000000    -2.935000000
C    -3.088000000    -4.371000000    -4.108000000
H    -3.329000000    -5.429000000    -4.174000000
C    -1.896000000    -3.896000000    -4.638000000
O    -1.115000000    -4.761000000    -5.216000000
C     0.190000000    -4.650000000    -5.486000000
C     1.101000000    -4.648000000    -4.452000000
H     0.831000000    -4.851000000    -3.419000000
C     0.680000000    -4.521000000    -6.779000000
H     0.085000000    -4.465000000    -7.687000000
C     2.053000000    -4.478000000    -7.090000000
H     2.346000000    -4.342000000    -8.128000000
C     2.938000000    -4.425000000    -6.017000000
H     4.020000000    -4.452000000    -6.126000000
C     2.463000000    -4.477000000    -4.759000000
O     3.426000000    -4.596000000    -3.733000000
C     3.716000000    -3.577000000    -2.828000000
C     4.287000000    -4.014000000    -1.654000000
H     4.491000000    -5.071000000    -1.503000000
C     4.606000000    -3.131000000    -0.635000000
O     5.053000000    -3.600000000     0.604000000
C     5.672000000    -2.756000000     1.481000000
C     5.071000000    -2.378000000     2.733000000
H     4.047000000    -2.649000000     2.974000000
C     7.032000000    -2.351000000     1.222000000
H     7.562000000    -2.675000000     0.330000000
C     7.783000000    -1.735000000     2.219000000
H     8.843000000    -1.571000000     2.042000000
C     7.166000000    -1.342000000     3.387000000
H     7.756000000    -0.722000000     4.058000000
C     5.826000000    -1.638000000     3.654000000
O     5.226000000    -1.252000000     4.858000000
C     3.964000000    -0.675000000     4.930000000
C     3.020000000    -1.080000000     5.796000000
H     3.242000000    -1.857000000     6.524000000
C     1.787000000    -0.386000000     5.954000000
O     0.817000000    -0.854000000     6.831000000
C    -0.434000000    -0.357000000     6.959000000
C    -1.492000000    -0.929000000     6.278000000
H    -1.332000000    -1.843000000     5.711000000
C    -0.648000000     0.782000000     7.748000000
H     0.129000000     1.373000000     8.225000000
C    -1.938000000     1.359000000     7.782000000
H    -1.973000000     2.239000000     8.420000000
C    -2.997000000     0.799000000     7.052000000
H    -3.972000000     1.262000000     7.179000000
C    -2.769000000    -0.385000000     6.354000000
O    -3.829000000    -1.075000000     5.773000000
C    -4.114000000    -0.778000000     4.431000000
C    -4.624000000    -1.888000000     3.717000000
H    -4.672000000    -2.877000000     4.164000000
C    -4.969000000    -1.753000000     2.419000000
O    -5.544000000    -2.818000000     1.770000000
C    -5.981000000    -2.767000000     0.443000000
C    -7.067000000    -1.924000000     0.042000000
H    -7.536000000    -1.380000000     0.858000000
C    -7.550000000    -1.958000000    -1.222000000
H    -8.437000000    -1.346000000    -1.362000000
C    -6.932000000    -2.814000000    -2.154000000
H    -7.193000000    -2.821000000    -3.209000000
C    -5.780000000    -3.437000000    -1.846000000
C    -5.345000000    -3.504000000    -0.517000000
H    -4.434000000    -4.048000000    -0.279000000
C    -0.006000000    -1.360000000     2.844000000
H    -0.546000000    -1.388000000     3.787000000
C    -0.200000000    -0.217000000     1.987000000
H    -0.938000000     0.538000000     2.245000000
C     0.444000000    -0.127000000     0.796000000
C     0.242000000     1.093000000    -0.145000000
H     1.179000000     1.348000000    -0.645000000
H    -0.459000000     0.957000000    -0.971000000
H    -0.184000000     1.857000000     0.508000000
C     1.026000000    -1.290000000     0.299000000
H     1.412000000    -1.317000000    -0.717000000
C     1.142000000    -2.454000000     1.102000000
H     1.710000000    -3.265000000     0.653000000
C     0.684000000    -2.481000000     2.367000000
C     0.956000000    -3.650000000     3.285000000
O     1.576000000    -4.633000000     2.905000000
O     0.440000000    -3.630000000     4.390000000
O    -3.237000000    -4.728000000     2.513000000
H    -2.707000000    -4.693000000     3.309000000
H    -2.856000000    -4.062000000     1.942000000
O     0.871000000    -2.826000000     9.619000000
H     0.192000000    -2.731000000    10.287000000
H     1.693000000    -2.690000000    10.091000000
O     3.862000000    -6.019000000     3.105000000
H     3.094000000    -5.448000000     3.136000000
H     4.605000000    -5.427000000     3.224000000
O    -2.194000000    -2.796000000     0.813000000
H    -1.369000000    -2.383000000     1.069000000
H    -1.946000000    -3.428000000     0.138000000
O    -4.665000000    -6.863000000     1.230000000
H    -4.111000000    -6.288000000     1.759000000
H    -5.324000000    -7.189000000     1.842000000
O     0.583000000    -6.577000000     1.274000000
H     1.311000000    -6.739000000     0.674000000
H     0.870000000    -5.832000000     1.803000000
O     0.227000000    -6.355000000     5.039000000
H    -0.676000000    -6.481000000     4.746000000
H     0.399000000    -5.425000000     4.893000000
O    -1.302000000    -5.108000000    -0.502000000
H    -1.096000000    -5.629000000    -1.278000000
H    -0.756000000    -5.482000000     0.190000000
O     4.122000000    -8.548000000     2.305000000
H     4.062000000    -8.538000000     1.350000000
H     4.071000000    -7.627000000     2.558000000
O    -5.050000000    -5.574000000     4.349000000
H    -4.521000000    -6.139000000     4.911000000
H    -4.430000000    -5.221000000     3.711000000
O     4.023000000    -3.877000000     8.573000000
H     3.371000000    -3.629000000     7.917000000
H     4.708000000    -4.322000000     8.074000000
O    -2.920000000    -6.657000000     6.117000000
H    -2.436000000    -5.882000000     5.832000000
H    -2.577000000    -6.847000000     6.990000000
O    -2.036000000    -4.379000000     4.967000000
H    -2.046000000    -4.104000000     5.884000000
H    -1.150000000    -4.175000000     4.666000000
O     6.463000000    -7.041000000     0.158000000
H     7.379000000    -6.808000000     0.312000000
H     5.971000000    -6.260000000     0.409000000
O     1.324000000    -9.281000000     2.703000000
H     2.253000000    -9.063000000     2.623000000
H     0.885000000    -8.434000000     2.774000000
O     2.676000000    -7.459000000     5.304000000
H     3.145000000    -6.760000000     4.847000000
H     1.757000000    -7.318000000     5.077000000
O    -1.099000000    -3.882000000     7.837000000
H    -1.799000000    -3.758000000     8.478000000
H    -0.306000000    -3.594000000     8.290000000
O     1.809000000    -4.009000000     6.890000000
H     1.079000000    -3.721000000     7.438000000
H     1.642000000    -3.606000000     6.038000000
O     1.701000000    -7.067000000     8.214000000
H     1.868000000    -6.999000000     7.274000000
H     1.861000000    -6.185000000     8.550000000
