218
-1436.03428
C     4.935000000    -1.667000000    -0.553000000
H     5.364000000    -0.935000000     0.127000000
C     4.213000000    -1.161000000    -1.625000000
C     3.616000000    -2.117000000    -2.492000000
H     2.885000000    -1.810000000    -3.236000000
C     3.859000000     0.381000000    -1.761000000
O     4.743000000     1.204000000    -1.021000000
H     2.870000000     0.416000000    -1.282000000
O     3.757000000     0.735000000    -3.131000000
C     2.728000000     1.544000000    -3.528000000
C     1.618000000     0.949000000    -4.109000000
H     1.645000000    -0.110000000    -4.352000000
C     0.429000000     1.619000000    -4.350000000
O    -0.608000000     0.867000000    -4.941000000
C     0.265000000     2.934000000    -3.959000000
C    -1.032000000     3.611000000    -4.136000000
H    -0.965000000     4.701000000    -4.150000000
C    -1.970000000     3.209000000    -2.991000000
C    -2.111000000     4.155000000    -1.936000000
H    -1.471000000     5.032000000    -1.963000000
H    -1.490000000     3.321000000    -5.084000000
C     1.372000000     3.557000000    -3.303000000
H     1.344000000     4.555000000    -2.875000000
C     2.578000000     2.907000000    -3.067000000
C     3.669000000     3.666000000    -2.326000000
H     3.703000000     4.725000000    -2.589000000
H     4.621000000     3.378000000    -2.778000000
C     3.617000000     3.381000000    -0.812000000
C     2.785000000     4.178000000     0.000000000
H     2.199000000     4.975000000    -0.452000000
C     4.142000000     2.218000000    -0.206000000
C     3.885000000     1.908000000     1.136000000
H     4.317000000     0.987000000     1.520000000
C     3.235000000     2.761000000     1.989000000
O     3.019000000     2.525000000     3.329000000
C     1.780000000     1.926000000     3.743000000
C     1.862000000     0.752000000     4.661000000
C     0.858000000     0.436000000     5.546000000
H     0.117000000     1.221000000     5.672000000
C     2.827000000    -0.226000000     4.473000000
H     3.636000000     0.071000000     3.811000000
O     0.917000000     2.988000000     4.317000000
H     1.317000000     1.507000000     2.837000000
C     2.600000000     3.890000000     1.366000000
C     1.919000000     4.824000000     2.295000000
H     1.944000000     5.838000000     1.892000000
H     2.379000000     4.815000000     3.285000000
C     0.415000000     4.388000000     2.429000000
C    -0.519000000     4.803000000     1.517000000
H    -0.242000000     5.522000000     0.750000000
C     0.032000000     3.521000000     3.447000000
C    -1.286000000     3.049000000     3.496000000
H    -1.571000000     2.233000000     4.156000000
C    -2.230000000     3.391000000     2.477000000
O    -3.405000000     2.634000000     2.453000000
C    -3.564000000     1.669000000     1.384000000
C    -4.287000000     0.372000000     1.829000000
C    -3.858000000    -0.254000000     3.014000000
H    -3.255000000     0.395000000     3.645000000
C    -5.164000000    -0.293000000     1.028000000
H    -5.433000000     0.053000000     0.034000000
O    -4.270000000     2.296000000     0.364000000
H    -2.607000000     1.363000000     0.935000000
C    -1.840000000     4.351000000     1.484000000
C    -2.816000000     4.736000000     0.338000000
H    -2.619000000     5.769000000     0.044000000
H    -3.843000000     4.805000000     0.703000000
C    -2.923000000     3.834000000    -0.831000000
C    -3.648000000     2.651000000    -0.789000000
C    -3.466000000     1.739000000    -1.844000000
H    -4.008000000     0.797000000    -1.845000000
C    -2.700000000     2.090000000    -2.932000000
O    -2.730000000     1.199000000    -3.996000000
C    -1.636000000     0.271000000    -4.123000000
H    -1.114000000     0.148000000    -3.163000000
C    -1.947000000    -1.179000000    -4.545000000
C    -1.051000000    -1.951000000    -5.297000000
H    -0.227000000    -1.456000000    -5.805000000
C    -2.938000000    -1.846000000    -3.816000000
H    -3.618000000    -1.267000000    -3.198000000
C    -3.210000000    -3.266000000    -3.892000000
O    -4.112000000    -3.948000000    -3.171000000
C    -2.342000000    -3.927000000    -4.704000000
H    -2.576000000    -4.986000000    -4.774000000
C    -1.272000000    -3.306000000    -5.453000000
O    -0.433000000    -4.139000000    -6.152000000
C     0.936000000    -4.089000000    -5.891000000
C     1.441000000    -4.314000000    -4.602000000
H     0.822000000    -4.428000000    -3.716000000
C     1.768000000    -3.715000000    -6.953000000
H     1.354000000    -3.397000000    -7.907000000
C     3.216000000    -3.823000000    -6.752000000
H     3.899000000    -3.531000000    -7.546000000
C     3.661000000    -4.086000000    -5.474000000
H     4.724000000    -3.977000000    -5.273000000
C     2.833000000    -4.248000000    -4.385000000
O     3.221000000    -4.413000000    -3.134000000
C     3.794000000    -3.478000000    -2.319000000
C     4.431000000    -3.954000000    -1.178000000
H     4.494000000    -5.027000000    -1.016000000
C     5.050000000    -3.064000000    -0.258000000
O     5.752000000    -3.555000000     0.780000000
C     5.867000000    -2.798000000     1.955000000
C     4.810000000    -2.862000000     2.912000000
H     3.914000000    -3.475000000     2.859000000
C     6.946000000    -2.041000000     2.272000000
H     7.751000000    -1.931000000     1.549000000
C     7.020000000    -1.166000000     3.373000000
H     7.899000000    -0.527000000     3.359000000
C     6.018000000    -1.255000000     4.344000000
H     6.062000000    -0.698000000     5.276000000
C     4.971000000    -2.114000000     4.072000000
O     4.033000000    -2.221000000     5.041000000
C     2.926000000    -1.386000000     5.174000000
C     1.903000000    -1.684000000     6.077000000
H     1.902000000    -2.647000000     6.581000000
C     0.875000000    -0.780000000     6.291000000
O    -0.113000000    -1.098000000     7.105000000
C    -1.401000000    -0.909000000     6.834000000
C    -2.049000000    -1.675000000     5.912000000
H    -1.555000000    -2.491000000     5.391000000
C    -2.098000000     0.092000000     7.504000000
H    -1.536000000     0.701000000     8.207000000
C    -3.441000000     0.359000000     7.249000000
H    -3.954000000     1.027000000     7.936000000
C    -4.058000000    -0.338000000     6.252000000
H    -5.108000000    -0.243000000     5.988000000
C    -3.350000000    -1.382000000     5.625000000
O    -3.985000000    -2.020000000     4.654000000
C    -4.346000000    -1.536000000     3.407000000
C    -5.256000000    -2.213000000     2.519000000
H    -5.781000000    -3.129000000     2.779000000
C    -5.651000000    -1.569000000     1.348000000
O    -6.580000000    -2.194000000     0.528000000
C    -6.396000000    -2.466000000    -0.803000000
C    -7.447000000    -2.163000000    -1.643000000
H    -8.317000000    -1.635000000    -1.260000000
C    -7.464000000    -2.617000000    -2.955000000
H    -8.383000000    -2.406000000    -3.496000000
C    -6.336000000    -3.180000000    -3.499000000
H    -6.275000000    -3.483000000    -4.541000000
C    -5.201000000    -3.306000000    -2.731000000
C    -5.311000000    -3.097000000    -1.326000000
H    -4.453000000    -3.311000000    -0.693000000
C     0.609000000    -2.294000000     1.856000000
H     0.435000000    -2.795000000     2.805000000
C     0.373000000    -0.935000000     1.662000000
H     0.140000000    -0.434000000     2.598000000
C     0.300000000    -0.314000000     0.446000000
C     0.082000000     1.144000000     0.278000000
H    -0.718000000     1.362000000    -0.434000000
H    -0.286000000     1.606000000     1.196000000
H     0.971000000     1.685000000    -0.054000000
C     0.824000000    -1.033000000    -0.617000000
H     0.953000000    -0.598000000    -1.605000000
C     1.036000000    -2.403000000    -0.466000000
H     1.368000000    -3.038000000    -1.283000000
C     0.874000000    -3.047000000     0.775000000
C     0.965000000    -4.536000000     0.873000000
O     1.069000000    -5.215000000    -0.086000000
O     0.780000000    -5.058000000     1.914000000
O    -0.176000000    -9.393000000    -0.538000000
H    -0.207000000    -8.705000000     0.128000000
H    -0.132000000   -10.208000000    -0.038000000
O    -1.778000000    -4.427000000     2.583000000
H    -0.925000000    -4.719000000     2.260000000
H    -1.652000000    -4.314000000     3.525000000
O     2.571000000    -7.261000000     0.978000000
H     2.827000000    -7.106000000     0.069000000
H     1.930000000    -6.577000000     1.167000000
O     0.416000000    -8.108000000     5.248000000
H     0.876000000    -8.107000000     4.409000000
H     0.859000000    -8.782000000     5.763000000
O    -0.820000000    -7.353000000     0.954000000
H    -1.276000000    -7.003000000     0.189000000
H    -0.139000000    -6.707000000     1.143000000
O     0.208000000    -6.719000000    -2.108000000
H     0.122000000    -7.596000000    -1.735000000
H     0.751000000    -6.243000000    -1.479000000
O     5.598000000    -6.973000000     3.666000000
H     5.010000000    -6.511000000     3.068000000
H     5.396000000    -7.899000000     3.533000000
O     2.523000000    -8.781000000     3.515000000
H     2.701000000    -8.135000000     2.832000000
H     3.243000000    -8.676000000     4.137000000
O    -1.589000000    -4.932000000     6.905000000
H    -0.941000000    -4.930000000     6.200000000
H    -1.098000000    -4.662000000     7.682000000
O     4.273000000    -9.750000000    -0.451000000
H     5.190000000    -9.669000000    -0.714000000
H     4.006000000    -8.856000000    -0.236000000
O    -2.413000000    -7.671000000     3.510000000
H    -2.354000000    -7.990000000     2.609000000
H    -1.526000000    -7.768000000     3.856000000
O     0.103000000    -4.603000000     4.829000000
H     0.086000000    -5.014000000     3.965000000
H     1.013000000    -4.332000000     4.947000000
O    -2.759000000    -5.864000000    -0.671000000
H    -2.431000000    -4.986000000    -0.477000000
H    -2.755000000    -5.915000000    -1.627000000
O     5.276000000    -7.374000000     0.357000000
H     5.591000000    -6.472000000     0.416000000
H     6.067000000    -7.909000000     0.433000000
O     2.258000000    -7.800000000    -4.755000000
H     1.402000000    -7.954000000    -5.154000000
H     2.106000000    -7.091000000    -4.129000000
O    -2.128000000    -3.306000000    -0.051000000
H    -1.926000000    -3.330000000     0.884000000
H    -1.504000000    -2.679000000    -0.415000000
O    -4.105000000    -5.491000000     1.602000000
H    -3.914000000    -5.715000000     0.691000000
H    -3.378000000    -4.928000000     1.868000000
O     2.536000000    -5.039000000     5.818000000
H     2.060000000    -5.852000000     5.985000000
H     3.330000000    -5.112000000     6.348000000
O    -1.601000000    -7.591000000    -4.215000000
H    -2.036000000    -8.209000000    -3.627000000
H    -0.915000000    -7.193000000    -3.679000000
