218
-1451.71394
C     5.312000000    -2.051000000    -0.010000000
H     5.636000000    -1.258000000     0.659000000
C     4.640000000    -1.687000000    -1.168000000
C     4.306000000    -2.630000000    -2.090000000
H     3.838000000    -2.413000000    -3.047000000
C     4.192000000    -0.233000000    -1.425000000
O     4.977000000     0.794000000    -0.753000000
H     3.177000000    -0.203000000    -1.003000000
O     4.079000000    -0.043000000    -2.842000000
C     2.954000000     0.627000000    -3.286000000
C     1.947000000    -0.132000000    -3.879000000
H     2.070000000    -1.184000000    -4.124000000
C     0.810000000     0.564000000    -4.346000000
O    -0.206000000    -0.297000000    -4.656000000
C     0.637000000     1.946000000    -4.241000000
C    -0.547000000     2.562000000    -4.816000000
H    -0.223000000     3.549000000    -5.152000000
C    -1.714000000     2.607000000    -3.811000000
C    -1.809000000     3.720000000    -3.020000000
H    -1.168000000     4.584000000    -3.174000000
H    -0.839000000     2.043000000    -5.731000000
C     1.678000000     2.693000000    -3.659000000
H     1.582000000     3.753000000    -3.439000000
C     2.873000000     2.087000000    -3.219000000
C     3.917000000     2.962000000    -2.580000000
H     3.897000000     3.923000000    -3.097000000
H     4.910000000     2.542000000    -2.758000000
C     3.802000000     2.960000000    -1.048000000
C     3.242000000     4.053000000    -0.509000000
H     2.767000000     4.836000000    -1.094000000
C     4.275000000     1.912000000    -0.290000000
C     4.038000000     1.919000000     1.055000000
H     4.227000000     1.101000000     1.745000000
C     3.350000000     2.995000000     1.659000000
O     2.934000000     2.856000000     2.946000000
C     1.662000000     2.373000000     3.226000000
C     1.738000000     1.236000000     4.265000000
C     0.817000000     1.232000000     5.321000000
H     0.239000000     2.104000000     5.615000000
C     2.480000000     0.094000000     3.933000000
H     3.155000000     0.052000000     3.082000000
O     0.772000000     3.482000000     3.481000000
H     1.342000000     1.824000000     2.329000000
C     2.971000000     4.088000000     0.863000000
C     2.018000000     5.136000000     1.435000000
H     2.120000000     6.091000000     0.915000000
H     2.254000000     5.300000000     2.489000000
C     0.539000000     4.702000000     1.435000000
C    -0.238000000     4.998000000     0.309000000
H     0.218000000     5.586000000    -0.484000000
C     0.026000000     4.003000000     2.501000000
C    -1.316000000     3.716000000     2.511000000
H    -1.804000000     3.181000000     3.321000000
C    -2.077000000     3.885000000     1.349000000
O    -3.376000000     3.461000000     1.359000000
C    -3.640000000     2.272000000     0.610000000
C    -4.381000000     1.215000000     1.469000000
C    -4.209000000     1.029000000     2.851000000
H    -3.631000000     1.815000000     3.331000000
C    -5.175000000     0.366000000     0.770000000
H    -5.401000000     0.397000000    -0.293000000
O    -4.334000000     2.696000000    -0.567000000
H    -2.636000000     1.865000000     0.421000000
C    -1.581000000     4.627000000     0.237000000
C    -2.480000000     4.986000000    -0.960000000
H    -1.891000000     5.751000000    -1.469000000
H    -3.388000000     5.461000000    -0.583000000
C    -2.704000000     3.781000000    -1.938000000
C    -3.633000000     2.748000000    -1.725000000
C    -3.602000000     1.645000000    -2.561000000
H    -4.386000000     0.908000000    -2.402000000
C    -2.635000000     1.581000000    -3.605000000
O    -2.466000000     0.407000000    -4.259000000
C    -1.350000000    -0.501000000    -3.855000000
H    -1.029000000    -0.300000000    -2.822000000
C    -1.861000000    -1.922000000    -3.820000000
C    -0.973000000    -2.976000000    -4.119000000
H    -0.013000000    -2.732000000    -4.566000000
C    -3.142000000    -2.198000000    -3.462000000
H    -3.793000000    -1.334000000    -3.356000000
C    -3.606000000    -3.560000000    -3.382000000
O    -4.903000000    -3.824000000    -3.134000000
C    -2.694000000    -4.580000000    -3.546000000
H    -2.965000000    -5.631000000    -3.488000000
C    -1.384000000    -4.333000000    -3.910000000
O    -0.547000000    -5.430000000    -4.099000000
C     0.803000000    -5.297000000    -4.378000000
C     1.802000000    -5.059000000    -3.389000000
H     1.521000000    -5.136000000    -2.342000000
C     1.127000000    -5.146000000    -5.721000000
H     0.365000000    -5.277000000    -6.485000000
C     2.449000000    -5.051000000    -6.067000000
H     2.710000000    -5.155000000    -7.117000000
C     3.490000000    -4.994000000    -5.127000000
H     4.530000000    -4.948000000    -5.438000000
C     3.143000000    -4.909000000    -3.723000000
O     4.188000000    -4.942000000    -2.825000000
C     4.481000000    -3.957000000    -1.818000000
C     5.086000000    -4.349000000    -0.653000000
H     5.290000000    -5.396000000    -0.442000000
C     5.566000000    -3.377000000     0.242000000
O     6.334000000    -3.586000000     1.316000000
C     6.007000000    -3.027000000     2.579000000
C     4.687000000    -2.953000000     3.003000000
H     3.872000000    -3.334000000     2.393000000
C     6.974000000    -2.748000000     3.514000000
H     7.944000000    -3.164000000     3.255000000
C     6.629000000    -2.110000000     4.680000000
H     7.428000000    -1.878000000     5.379000000
C     5.296000000    -1.806000000     4.995000000
H     4.999000000    -1.335000000     5.929000000
C     4.280000000    -2.293000000     4.144000000
O     3.012000000    -2.164000000     4.418000000
C     2.341000000    -0.990000000     4.748000000
C     1.414000000    -1.006000000     5.747000000
H     1.376000000    -1.946000000     6.292000000
C     0.618000000     0.084000000     6.045000000
O    -0.383000000    -0.087000000     6.993000000
C    -1.722000000     0.305000000     6.814000000
C    -2.554000000    -0.221000000     5.778000000
H    -2.064000000    -0.792000000     4.993000000
C    -2.266000000     0.989000000     7.913000000
H    -1.689000000     1.376000000     8.748000000
C    -3.567000000     1.425000000     7.807000000
H    -4.066000000     1.926000000     8.633000000
C    -4.347000000     0.940000000     6.724000000
H    -5.387000000     1.254000000     6.752000000
C    -3.818000000     0.202000000     5.717000000
O    -4.683000000    -0.373000000     4.842000000
C    -4.793000000    -0.019000000     3.509000000
C    -5.623000000    -0.799000000     2.758000000
H    -6.065000000    -1.665000000     3.243000000
C    -5.853000000    -0.617000000     1.408000000
O    -6.648000000    -1.571000000     0.762000000
C    -6.627000000    -1.703000000    -0.606000000
C    -7.346000000    -0.897000000    -1.460000000
H    -7.979000000    -0.119000000    -1.041000000
C    -7.359000000    -1.065000000    -2.853000000
H    -7.848000000    -0.343000000    -3.502000000
C    -6.521000000    -2.036000000    -3.368000000
H    -6.398000000    -2.211000000    -4.434000000
C    -5.711000000    -2.863000000    -2.514000000
C    -5.902000000    -2.780000000    -1.115000000
H    -5.199000000    -3.221000000    -0.413000000
C     0.199000000    -1.621000000     1.880000000
H    -0.136000000    -1.826000000     2.894000000
C     0.059000000    -0.269000000     1.462000000
H    -0.392000000     0.476000000     2.113000000
C     0.314000000    -0.079000000     0.115000000
C     0.106000000     1.245000000    -0.576000000
H     0.516000000     2.057000000     0.029000000
H     0.673000000     1.377000000    -1.499000000
H    -0.968000000     1.305000000    -0.766000000
C     0.836000000    -1.067000000    -0.674000000
H     1.070000000    -0.908000000    -1.723000000
C     1.199000000    -2.340000000    -0.143000000
H     1.755000000    -3.020000000    -0.782000000
C     0.753000000    -2.650000000     1.161000000
C     0.911000000    -4.059000000     1.720000000
O     1.705000000    -4.818000000     1.202000000
O     0.271000000    -4.475000000     2.664000000
O     1.760000000    -5.432000000     7.069000000
H     2.552000000    -4.894000000     7.055000000
H     1.459000000    -5.438000000     6.161000000
O     4.375000000    -5.799000000     5.612000000
H     4.320000000    -5.458000000     6.505000000
H     5.258000000    -5.571000000     5.322000000
O    -0.876000000    -7.912000000     5.836000000
H    -0.119000000    -7.969000000     6.419000000
H    -0.576000000    -7.369000000     5.107000000
O    -3.838000000    -6.191000000    -0.747000000
H    -4.560000000    -6.336000000    -1.358000000
H    -3.955000000    -6.862000000    -0.074000000
O     1.076000000    -6.006000000     4.627000000
H     0.699000000    -5.567000000     3.865000000
H     1.867000000    -6.429000000     4.294000000
O     4.918000000    -7.780000000     0.138000000
H     4.573000000    -7.055000000     0.659000000
H     4.187000000    -8.042000000    -0.421000000
O     3.314000000    -8.158000000    -2.349000000
H     3.156000000    -7.304000000    -2.751000000
H     2.756000000    -8.163000000    -1.571000000
O    -2.528000000    -3.738000000     4.092000000
H    -2.895000000    -4.010000000     3.251000000
H    -1.605000000    -3.988000000     4.042000000
O     1.833000000    -6.854000000    -0.401000000
H     0.947000000    -6.788000000    -0.756000000
H     1.889000000    -6.143000000     0.237000000
O    -2.391000000    -2.241000000     0.072000000
H    -2.329000000    -1.521000000    -0.557000000
H    -1.531000000    -2.268000000     0.490000000
O     2.870000000    -8.700000000     3.094000000
H     2.055000000    -8.813000000     2.605000000
H     3.180000000    -7.829000000     2.844000000
O    -0.820000000    -6.877000000     1.590000000
H    -0.940000000    -6.534000000     0.704000000
H    -0.232000000    -6.251000000     2.012000000
O     3.617000000    -6.277000000     2.506000000
H     2.946000000    -5.693000000     2.151000000
H     4.221000000    -5.696000000     2.967000000
O    -3.165000000    -8.008000000     1.134000000
H    -2.390000000    -7.595000000     1.515000000
H    -2.917000000    -8.925000000     1.020000000
O    -3.575000000    -4.117000000     1.476000000
H    -3.599000000    -4.795000000     0.800000000
H    -3.205000000    -3.352000000     1.036000000
O     1.076000000    -9.635000000     1.430000000
H     0.724000000    -9.010000000     0.797000000
H     0.643000000   -10.462000000     1.216000000
O    -4.515000000    -3.113000000     6.046000000
H    -3.942000000    -3.300000000     6.789000000
H    -3.924000000    -3.058000000     5.295000000
O    -2.483000000    -5.795000000     6.861000000
H    -1.969000000    -6.591000000     6.728000000
H    -2.276000000    -5.247000000     6.104000000
O    -0.656000000    -6.514000000    -1.303000000
H    -0.422000000    -6.722000000    -2.208000000
H    -1.612000000    -6.555000000    -1.287000000
