218
-1452.07805
C     5.104000000    -1.339000000    -0.457000000
H     5.220000000    -0.646000000     0.372000000
C     4.637000000    -0.881000000    -1.675000000
C     4.628000000    -1.772000000    -2.770000000
H     4.141000000    -1.435000000    -3.681000000
C     4.107000000     0.621000000    -1.679000000
O     4.898000000     1.500000000    -0.840000000
H     3.107000000     0.547000000    -1.227000000
O     4.011000000     1.084000000    -3.040000000
C     2.839000000     1.754000000    -3.536000000
C     1.932000000     1.036000000    -4.210000000
H     2.228000000     0.016000000    -4.440000000
C     0.634000000     1.528000000    -4.463000000
O    -0.321000000     0.675000000    -4.969000000
C     0.441000000     2.916000000    -4.099000000
C    -0.939000000     3.558000000    -4.358000000
H    -0.976000000     4.605000000    -4.668000000
C    -2.011000000     3.296000000    -3.261000000
C    -2.212000000     4.210000000    -2.272000000
H    -1.735000000     5.186000000    -2.300000000
H    -1.300000000     3.144000000    -5.301000000
C     1.452000000     3.610000000    -3.474000000
H     1.165000000     4.638000000    -3.271000000
C     2.661000000     3.073000000    -3.119000000
C     3.704000000     3.866000000    -2.255000000
H     3.525000000     4.930000000    -2.420000000
H     4.777000000     3.779000000    -2.440000000
C     3.575000000     3.507000000    -0.747000000
C     2.734000000     4.290000000     0.038000000
H     2.293000000     5.162000000    -0.438000000
C     4.231000000     2.473000000    -0.075000000
C     3.991000000     2.176000000     1.282000000
H     4.390000000     1.242000000     1.669000000
C     3.158000000     2.950000000     2.022000000
O     2.768000000     2.574000000     3.257000000
C     1.484000000     1.958000000     3.522000000
C     1.671000000     0.778000000     4.537000000
C     0.803000000     0.601000000     5.608000000
H     0.090000000     1.393000000     5.823000000
C     2.627000000    -0.175000000     4.270000000
H     3.246000000    -0.116000000     3.379000000
O     0.493000000     2.864000000     3.918000000
H     1.131000000     1.401000000     2.642000000
C     2.500000000     3.977000000     1.371000000
C     1.492000000     4.857000000     2.156000000
H     1.406000000     5.836000000     1.681000000
H     1.806000000     4.936000000     3.199000000
C     0.062000000     4.356000000     2.165000000
C    -0.872000000     4.886000000     1.232000000
H    -0.477000000     5.637000000     0.552000000
C    -0.363000000     3.363000000     3.032000000
C    -1.622000000     2.830000000     2.959000000
H    -1.969000000     2.061000000     3.645000000
C    -2.541000000     3.351000000     2.055000000
O    -3.705000000     2.673000000     1.942000000
C    -3.777000000     1.545000000     0.961000000
C    -4.435000000     0.312000000     1.591000000
C    -3.872000000    -0.336000000     2.715000000
H    -3.006000000     0.123000000     3.185000000
C    -5.431000000    -0.378000000     0.944000000
H    -5.774000000    -0.021000000    -0.024000000
O    -4.512000000     2.114000000    -0.199000000
H    -2.770000000     1.359000000     0.561000000
C    -2.145000000     4.357000000     1.116000000
C    -3.086000000     4.793000000    -0.002000000
H    -2.725000000     5.786000000    -0.278000000
H    -4.088000000     4.918000000     0.413000000
C    -3.083000000     3.824000000    -1.167000000
C    -3.781000000     2.607000000    -1.275000000
C    -3.587000000     1.715000000    -2.316000000
H    -4.080000000     0.746000000    -2.327000000
C    -2.759000000     2.109000000    -3.344000000
O    -2.461000000     1.181000000    -4.303000000
C    -1.314000000     0.310000000    -3.941000000
H    -1.128000000     0.537000000    -2.881000000
C    -1.601000000    -1.214000000    -3.981000000
C    -0.546000000    -2.095000000    -3.978000000
H     0.446000000    -1.716000000    -4.209000000
C    -2.898000000    -1.687000000    -3.875000000
H    -3.755000000    -1.019000000    -3.906000000
C    -3.125000000    -3.041000000    -3.642000000
O    -4.437000000    -3.452000000    -3.637000000
C    -2.056000000    -3.931000000    -3.734000000
H    -2.224000000    -4.995000000    -3.584000000
C    -0.736000000    -3.505000000    -3.906000000
O     0.270000000    -4.387000000    -3.892000000
C     1.449000000    -4.353000000    -4.539000000
C     2.611000000    -4.119000000    -3.896000000
H     2.593000000    -3.858000000    -2.841000000
C     1.463000000    -4.464000000    -5.931000000
H     0.542000000    -4.564000000    -6.500000000
C     2.637000000    -4.319000000    -6.706000000
H     2.646000000    -4.334000000    -7.793000000
C     3.845000000    -4.282000000    -5.976000000
H     4.757000000    -4.208000000    -6.564000000
C     3.853000000    -4.176000000    -4.591000000
O     5.048000000    -3.971000000    -3.896000000
C     5.078000000    -3.148000000    -2.704000000
C     5.577000000    -3.576000000    -1.461000000
H     5.918000000    -4.607000000    -1.397000000
C     5.581000000    -2.673000000    -0.380000000
O     6.196000000    -3.140000000     0.739000000
C     6.007000000    -2.662000000     2.069000000
C     4.730000000    -2.616000000     2.575000000
H     3.879000000    -2.965000000     1.996000000
C     7.139000000    -2.213000000     2.738000000
H     8.085000000    -2.308000000     2.212000000
C     6.869000000    -1.710000000     4.024000000
H     7.726000000    -1.415000000     4.623000000
C     5.548000000    -1.822000000     4.570000000
H     5.450000000    -1.631000000     5.636000000
C     4.483000000    -2.273000000     3.910000000
O     3.270000000    -2.512000000     4.508000000
C     2.526000000    -1.409000000     5.010000000
C     1.559000000    -1.594000000     6.009000000
H     1.497000000    -2.628000000     6.339000000
C     0.649000000    -0.632000000     6.322000000
O    -0.229000000    -0.875000000     7.298000000
C    -1.568000000    -0.870000000     7.018000000
C    -1.998000000    -1.428000000     5.859000000
H    -1.296000000    -1.878000000     5.162000000
C    -2.412000000    -0.293000000     7.911000000
H    -2.182000000     0.105000000     8.896000000
C    -3.781000000    -0.223000000     7.571000000
H    -4.530000000     0.251000000     8.199000000
C    -4.258000000    -0.828000000     6.357000000
H    -5.324000000    -0.952000000     6.184000000
C    -3.341000000    -1.283000000     5.467000000
O    -3.795000000    -2.043000000     4.398000000
C    -4.434000000    -1.481000000     3.274000000
C    -5.287000000    -2.212000000     2.484000000
H    -5.616000000    -3.205000000     2.780000000
C    -5.820000000    -1.666000000     1.326000000
O    -6.692000000    -2.380000000     0.565000000
C    -6.565000000    -2.545000000    -0.816000000
C    -7.781000000    -2.444000000    -1.456000000
H    -8.691000000    -2.382000000    -0.865000000
C    -7.771000000    -2.402000000    -2.823000000
H    -8.748000000    -2.258000000    -3.279000000
C    -6.679000000    -2.740000000    -3.586000000
H    -6.746000000    -2.857000000    -4.665000000
C    -5.455000000    -2.891000000    -2.881000000
C    -5.394000000    -2.843000000    -1.482000000
H    -4.531000000    -3.073000000    -0.862000000
C     0.091000000    -1.731000000     2.213000000
H    -0.366000000    -1.848000000     3.193000000
C    -0.149000000    -0.532000000     1.577000000
H    -0.792000000     0.242000000     1.988000000
C     0.400000000    -0.315000000     0.319000000
C    -0.037000000     0.863000000    -0.422000000
H    -1.068000000     0.685000000    -0.732000000
H    -0.050000000     1.693000000     0.289000000
H     0.676000000     1.038000000    -1.230000000
C     1.242000000    -1.234000000    -0.223000000
H     1.756000000    -1.125000000    -1.175000000
C     1.507000000    -2.411000000     0.455000000
H     2.156000000    -3.121000000    -0.050000000
C     0.955000000    -2.684000000     1.722000000
C     1.269000000    -4.001000000     2.444000000
O     2.093000000    -4.807000000     1.988000000
O     0.633000000    -4.193000000     3.462000000
O     1.216000000    -6.067000000     8.036000000
H     1.952000000    -5.572000000     8.395000000
H     1.245000000    -5.893000000     7.096000000
O    -3.912000000    -6.677000000     0.566000000
H    -3.237000000    -6.000000000     0.521000000
H    -3.432000000    -7.482000000     0.761000000
O     1.801000000    -5.102000000     5.502000000
H     1.288000000    -4.777000000     4.763000000
H     2.513000000    -4.469000000     5.596000000
O     6.029000000    -6.172000000     1.203000000
H     5.188000000    -5.980000000     0.787000000
H     6.299000000    -5.341000000     1.593000000
O     4.865000000    -6.866000000    -2.484000000
H     5.806000000    -6.839000000    -2.658000000
H     4.719000000    -6.169000000    -1.844000000
O    -1.857000000    -5.186000000     3.498000000
H    -1.939000000    -5.013000000     2.561000000
H    -0.962000000    -4.922000000     3.713000000
O     3.412000000    -5.659000000     0.018000000
H     2.686000000    -5.961000000    -0.528000000
H     2.993000000    -5.332000000     0.814000000
O    -2.258000000    -2.053000000     0.002000000
H    -1.333000000    -1.909000000     0.199000000
H    -2.724000000    -1.471000000     0.603000000
O     1.155000000    -7.593000000    -1.737000000
H     0.477000000    -8.129000000    -2.148000000
H     1.944000000    -8.134000000    -1.775000000
O     4.199000000    -8.842000000     2.663000000
H     3.313000000    -8.490000000     2.751000000
H     4.724000000    -8.325000000     3.274000000
O     1.566000000    -7.363000000     2.751000000
H     1.618000000    -6.554000000     2.242000000
H     1.862000000    -7.115000000     3.626000000
O     4.116000000    -5.351000000     4.055000000
H     3.369000000    -5.327000000     3.457000000
H     4.319000000    -4.430000000     4.221000000
O    -0.332000000    -8.220000000     4.708000000
H    -0.129000000    -7.652000000     3.965000000
H     0.465000000    -8.215000000     5.238000000
O     5.354000000    -8.623000000     0.347000000
H     5.409000000    -7.678000000     0.487000000
H     4.850000000    -8.947000000     1.093000000
O    -2.174000000    -4.595000000     0.498000000
H    -1.429000000    -4.894000000    -0.024000000
H    -2.205000000    -3.650000000     0.352000000
O    -4.563000000    -5.201000000     4.206000000
H    -4.762000000    -4.725000000     5.012000000
H    -3.625000000    -5.068000000     4.075000000
O    -2.886000000    -7.302000000     5.470000000
H    -2.050000000    -7.766000000     5.432000000
H    -2.809000000    -6.616000000     4.807000000
O     4.094000000    -7.666000000     5.396000000
H     4.167000000    -6.824000000     4.947000000
H     4.915000000    -7.750000000     5.881000000
O     0.069000000    -5.025000000    -1.154000000
H     0.192000000    -5.965000000    -1.286000000
H    -0.254000000    -4.705000000    -1.996000000
