218
-1495.14875
C     4.479000000    -1.949000000    -1.072000000
H     4.733000000    -1.343000000    -0.206000000
C     3.950000000    -1.474000000    -2.232000000
C     3.664000000    -2.297000000    -3.307000000
H     3.417000000    -1.892000000    -4.285000000
C     3.512000000    -0.067000000    -2.233000000
O     4.427000000     0.858000000    -1.677000000
H     2.551000000    -0.034000000    -1.699000000
O     3.182000000     0.362000000    -3.579000000
C     2.028000000     1.039000000    -3.801000000
C     0.913000000     0.339000000    -4.335000000
H     0.973000000    -0.712000000    -4.607000000
C    -0.297000000     0.985000000    -4.525000000
O    -1.381000000     0.256000000    -4.793000000
C    -0.380000000     2.425000000    -4.347000000
C    -1.682000000     3.190000000    -4.525000000
H    -1.509000000     4.261000000    -4.643000000
C    -2.435000000     3.050000000    -3.202000000
C    -2.240000000     3.978000000    -2.166000000
H    -1.520000000     4.788000000    -2.248000000
H    -2.327000000     2.750000000    -5.289000000
C     0.709000000     3.131000000    -3.896000000
H     0.657000000     4.203000000    -3.725000000
C     1.867000000     2.396000000    -3.534000000
C     3.087000000     3.242000000    -3.076000000
H     2.934000000     4.313000000    -3.227000000
H     3.999000000     2.925000000    -3.586000000
C     3.318000000     3.028000000    -1.550000000
C     2.858000000     4.083000000    -0.731000000
H     2.329000000     4.939000000    -1.142000000
C     4.009000000     1.972000000    -0.985000000
C     4.171000000     1.850000000     0.400000000
H     4.721000000     1.084000000     0.940000000
C     3.642000000     2.841000000     1.212000000
O     3.703000000     2.508000000     2.565000000
C     2.431000000     2.020000000     3.127000000
C     2.735000000     0.948000000     4.217000000
C     1.868000000     0.759000000     5.272000000
H     1.063000000     1.431000000     5.557000000
C     3.776000000    -0.016000000     3.987000000
H     4.419000000     0.183000000     3.134000000
O     1.647000000     3.090000000     3.658000000
H     1.966000000     1.521000000     2.265000000
C     2.964000000     3.979000000     0.683000000
C     2.326000000     4.973000000     1.538000000
H     2.424000000     5.959000000     1.079000000
H     2.860000000     5.068000000     2.486000000
C     0.936000000     4.489000000     1.831000000
C    -0.037000000     4.767000000     0.904000000
H     0.198000000     5.432000000     0.077000000
C     0.679000000     3.627000000     2.890000000
C    -0.586000000     3.087000000     3.043000000
H    -0.869000000     2.545000000     3.942000000
C    -1.600000000     3.409000000     2.146000000
O    -2.812000000     2.775000000     2.304000000
C    -3.224000000     1.733000000     1.447000000
C    -3.743000000     0.562000000     2.211000000
C    -3.319000000     0.370000000     3.540000000
H    -2.592000000     1.031000000     4.006000000
C    -4.522000000    -0.372000000     1.642000000
H    -4.919000000    -0.166000000     0.651000000
O    -4.197000000     2.286000000     0.568000000
H    -2.302000000     1.438000000     0.924000000
C    -1.329000000     4.253000000     1.061000000
C    -2.483000000     4.679000000     0.176000000
H    -2.236000000     5.652000000    -0.253000000
H    -3.322000000     4.931000000     0.828000000
C    -2.766000000     3.732000000    -0.898000000
C    -3.688000000     2.668000000    -0.709000000
C    -4.077000000     1.882000000    -1.794000000
H    -4.739000000     1.028000000    -1.675000000
C    -3.415000000     2.053000000    -3.005000000
O    -3.468000000     0.944000000    -3.852000000
C    -2.250000000     0.088000000    -3.646000000
H    -1.691000000     0.554000000    -2.822000000
C    -2.608000000    -1.382000000    -3.404000000
C    -1.639000000    -2.389000000    -3.526000000
H    -0.569000000    -2.218000000    -3.606000000
C    -3.952000000    -1.764000000    -3.168000000
H    -4.621000000    -0.943000000    -2.924000000
C    -4.273000000    -3.088000000    -3.128000000
O    -5.562000000    -3.547000000    -2.779000000
C    -3.286000000    -4.070000000    -3.250000000
H    -3.536000000    -5.126000000    -3.187000000
C    -2.015000000    -3.747000000    -3.463000000
O    -1.078000000    -4.719000000    -3.473000000
C    -0.005000000    -4.781000000    -4.379000000
C     1.258000000    -4.524000000    -3.901000000
H     1.362000000    -4.377000000    -2.830000000
C    -0.288000000    -4.974000000    -5.724000000
H    -1.315000000    -4.904000000    -6.074000000
C     0.822000000    -4.841000000    -6.613000000
H     0.613000000    -4.938000000    -7.675000000
C     2.120000000    -4.746000000    -6.141000000
H     3.055000000    -4.960000000    -6.652000000
C     2.350000000    -4.601000000    -4.792000000
O     3.607000000    -4.531000000    -4.294000000
C     3.927000000    -3.658000000    -3.267000000
C     4.554000000    -4.174000000    -2.100000000
H     4.886000000    -5.202000000    -1.984000000
C     4.835000000    -3.334000000    -1.011000000
O     5.495000000    -3.864000000     0.027000000
C     5.938000000    -3.087000000     1.100000000
C     5.220000000    -3.002000000     2.278000000
H     4.346000000    -3.646000000     2.337000000
C     6.957000000    -2.174000000     0.793000000
H     7.516000000    -2.243000000    -0.136000000
C     7.295000000    -1.174000000     1.761000000
H     8.065000000    -0.437000000     1.547000000
C     6.667000000    -1.183000000     2.989000000
H     6.977000000    -0.456000000     3.735000000
C     5.563000000    -2.040000000     3.222000000
O     4.908000000    -2.077000000     4.430000000
C     4.025000000    -1.062000000     4.821000000
C     3.164000000    -1.304000000     5.904000000
H     3.337000000    -2.228000000     6.449000000
C     2.090000000    -0.418000000     6.088000000
O     1.160000000    -0.660000000     7.089000000
C    -0.050000000    -0.127000000     6.966000000
C    -1.058000000    -0.849000000     6.319000000
H    -0.765000000    -1.780000000     5.839000000
C    -0.373000000     1.094000000     7.632000000
H     0.324000000     1.480000000     8.371000000
C    -1.645000000     1.666000000     7.526000000
H    -2.001000000     2.447000000     8.192000000
C    -2.643000000     0.964000000     6.734000000
H    -3.625000000     1.411000000     6.599000000
C    -2.386000000    -0.339000000     6.250000000
O    -3.393000000    -1.029000000     5.581000000
C    -3.844000000    -0.715000000     4.274000000
C    -4.742000000    -1.624000000     3.719000000
H    -5.194000000    -2.346000000     4.395000000
C    -5.151000000    -1.410000000     2.367000000
O    -6.051000000    -2.270000000     1.834000000
C    -6.475000000    -2.126000000     0.545000000
C    -7.861000000    -1.958000000     0.367000000
H    -8.526000000    -1.581000000     1.140000000
C    -8.432000000    -2.331000000    -0.859000000
H    -9.501000000    -2.279000000    -1.048000000
C    -7.591000000    -2.696000000    -1.923000000
H    -8.055000000    -3.105000000    -2.818000000
C    -6.231000000    -2.888000000    -1.725000000
C    -5.688000000    -2.622000000    -0.479000000
H    -4.639000000    -2.879000000    -0.353000000
C     0.770000000    -2.065000000     2.321000000
H     0.695000000    -2.071000000     3.405000000
C     0.474000000    -0.817000000     1.706000000
H     0.162000000     0.064000000     2.261000000
C     0.556000000    -0.666000000     0.313000000
C     0.316000000     0.697000000    -0.294000000
H     0.690000000     1.424000000     0.430000000
H     0.951000000     0.765000000    -1.180000000
H    -0.682000000     0.874000000    -0.700000000
C     1.000000000    -1.745000000    -0.453000000
H     1.178000000    -1.491000000    -1.495000000
C     1.325000000    -2.932000000     0.173000000
H     1.703000000    -3.749000000    -0.436000000
C     1.243000000    -3.116000000     1.567000000
C     1.557000000    -4.378000000     2.291000000
O     2.236000000    -5.178000000     1.641000000
O     1.277000000    -4.567000000     3.463000000
O     0.470000000    -6.254000000     7.063000000
H     0.230000000    -5.380000000     7.372000000
H     1.383000000    -6.167000000     6.788000000
O    -3.909000000    -4.931000000     3.978000000
H    -3.115000000    -4.450000000     4.211000000
H    -3.956000000    -4.868000000     3.024000000
O     2.779000000    -5.026000000     5.573000000
H     2.001000000    -4.855000000     5.043000000
H     3.440000000    -5.314000000     4.942000000
O     1.536000000   -10.197000000     1.063000000
H     1.591000000    -9.487000000     1.702000000
H     1.820000000    -9.801000000     0.239000000
O     2.620000000    -9.143000000    -0.961000000
H     3.502000000    -8.780000000    -0.880000000
H     2.054000000    -8.378000000    -1.060000000
O    -1.481000000    -3.817000000     4.563000000
H    -1.576000000    -3.068000000     3.974000000
H    -0.723000000    -4.293000000     4.224000000
O     1.357000000    -6.875000000    -0.806000000
H     0.430000000    -6.670000000    -0.926000000
H     1.566000000    -6.542000000     0.066000000
O    -2.066000000    -3.393000000     1.162000000
H    -1.393000000    -2.713000000     1.144000000
H    -1.631000000    -4.170000000     0.812000000
O    -2.750000000    -7.736000000     2.965000000
H    -2.184000000    -7.018000000     3.250000000
H    -3.542000000    -7.641000000     3.494000000
O     1.771000000    -7.799000000     2.914000000
H     0.860000000    -7.612000000     3.141000000
H     2.183000000    -6.938000000     2.846000000
O    -0.387000000    -6.547000000     4.095000000
H    -0.456000000    -6.646000000     5.045000000
H     0.196000000    -5.798000000     3.974000000
O     4.540000000    -6.367000000     3.844000000
H     4.202000000    -6.351000000     2.949000000
H     4.773000000    -7.283000000     3.996000000
O     2.131000000    -7.296000000    -3.337000000
H     3.053000000    -7.220000000    -3.580000000
H     2.072000000    -6.870000000    -2.482000000
O    -4.257000000    -5.073000000     1.008000000
H    -4.048000000    -5.655000000     0.277000000
H    -3.516000000    -4.469000000     1.053000000
O     1.819000000    -9.930000000     4.853000000
H     1.828000000    -9.203000000     4.230000000
H     1.892000000   -10.713000000     4.308000000
O    -2.009000000    -3.548000000     7.628000000
H    -1.859000000    -3.663000000     6.690000000
H    -1.187000000    -3.187000000     7.960000000
O     4.303000000    -6.457000000     0.772000000
H     4.850000000    -5.896000000     0.223000000
H     3.494000000    -5.959000000     0.892000000
O     6.862000000    -4.782000000     5.056000000
H     5.973000000    -4.974000000     4.758000000
H     6.857000000    -5.008000000     5.987000000
O    -1.013000000    -5.886000000     0.816000000
H    -1.678000000    -6.339000000     0.298000000
H    -0.739000000    -6.529000000     1.470000000
