218
-1475.54810
C     4.466000000    -1.477000000     0.106000000
H     4.317000000    -0.787000000     0.933000000
C     4.264000000    -1.158000000    -1.254000000
C     4.341000000    -2.202000000    -2.185000000
H     4.128000000    -2.099000000    -3.246000000
C     3.941000000     0.247000000    -1.610000000
O     4.602000000     1.274000000    -0.885000000
H     2.870000000     0.279000000    -1.360000000
O     4.126000000     0.478000000    -3.018000000
C     3.003000000     0.988000000    -3.628000000
C     1.996000000     0.166000000    -4.161000000
H     2.096000000    -0.915000000    -4.217000000
C     0.753000000     0.714000000    -4.480000000
O    -0.245000000    -0.114000000    -4.907000000
C     0.472000000     2.040000000    -4.269000000
C    -0.889000000     2.646000000    -4.617000000
H    -0.773000000     3.715000000    -4.810000000
C    -1.907000000     2.481000000    -3.498000000
C    -2.149000000     3.470000000    -2.541000000
H    -1.619000000     4.415000000    -2.617000000
H    -1.106000000     2.093000000    -5.532000000
C     1.465000000     2.817000000    -3.722000000
H     1.333000000     3.884000000    -3.565000000
C     2.731000000     2.317000000    -3.418000000
C     3.712000000     3.329000000    -2.791000000
H     3.534000000     4.336000000    -3.175000000
H     4.734000000     2.985000000    -2.966000000
C     3.461000000     3.416000000    -1.243000000
C     2.511000000     4.252000000    -0.702000000
H     1.961000000     4.832000000    -1.439000000
C     3.980000000     2.423000000    -0.446000000
C     3.750000000     2.389000000     0.928000000
H     3.985000000     1.493000000     1.498000000
C     2.986000000     3.368000000     1.531000000
O     2.607000000     3.020000000     2.811000000
C     1.405000000     2.404000000     3.116000000
C     1.612000000     1.366000000     4.145000000
C     0.429000000     0.935000000     4.803000000
H    -0.494000000     1.308000000     4.366000000
C     2.904000000     0.944000000     4.565000000
H     3.843000000     1.329000000     4.175000000
O     0.416000000     3.423000000     3.463000000
H     1.035000000     1.897000000     2.212000000
C     2.235000000     4.247000000     0.670000000
C     1.264000000     5.256000000     1.278000000
H     1.251000000     6.142000000     0.640000000
H     1.613000000     5.646000000     2.236000000
C    -0.118000000     4.622000000     1.440000000
C    -1.033000000     4.868000000     0.429000000
H    -0.648000000     5.417000000    -0.426000000
C    -0.481000000     3.813000000     2.527000000
C    -1.791000000     3.286000000     2.634000000
H    -2.010000000     2.632000000     3.475000000
C    -2.781000000     3.691000000     1.704000000
O    -3.897000000     2.894000000     1.683000000
C    -3.821000000     1.624000000     0.880000000
C    -4.576000000     0.569000000     1.702000000
C    -4.664000000     0.563000000     3.108000000
H    -4.267000000     1.395000000     3.685000000
C    -5.081000000    -0.538000000     1.001000000
H    -4.839000000    -0.480000000    -0.058000000
O    -4.572000000     1.966000000    -0.350000000
H    -2.768000000     1.364000000     0.697000000
C    -2.398000000     4.415000000     0.539000000
C    -3.289000000     4.503000000    -0.620000000
H    -3.070000000     5.429000000    -1.157000000
H    -4.313000000     4.574000000    -0.247000000
C    -3.086000000     3.329000000    -1.571000000
C    -3.741000000     2.113000000    -1.383000000
C    -3.554000000     1.096000000    -2.328000000
H    -4.142000000     0.196000000    -2.166000000
C    -2.722000000     1.323000000    -3.400000000
O    -2.469000000     0.313000000    -4.289000000
C    -1.305000000    -0.445000000    -3.947000000
H    -0.942000000    -0.105000000    -2.966000000
C    -1.555000000    -1.936000000    -3.902000000
C    -0.532000000    -2.820000000    -4.377000000
H     0.402000000    -2.439000000    -4.781000000
C    -2.754000000    -2.430000000    -3.496000000
H    -3.525000000    -1.697000000    -3.270000000
C    -2.950000000    -3.810000000    -3.528000000
O    -4.084000000    -4.435000000    -3.078000000
C    -1.962000000    -4.657000000    -3.923000000
H    -2.121000000    -5.721000000    -3.765000000
C    -0.760000000    -4.184000000    -4.377000000
O     0.121000000    -5.213000000    -4.847000000
C     1.477000000    -5.064000000    -4.824000000
C     2.276000000    -4.667000000    -3.794000000
H     1.881000000    -4.590000000    -2.784000000
C     2.076000000    -5.258000000    -6.112000000
H     1.360000000    -5.539000000    -6.880000000
C     3.447000000    -5.104000000    -6.325000000
H     3.902000000    -5.282000000    -7.296000000
C     4.233000000    -4.883000000    -5.210000000
H     5.276000000    -4.639000000    -5.391000000
C     3.657000000    -4.649000000    -3.946000000
O     4.542000000    -4.487000000    -2.891000000
C     4.537000000    -3.518000000    -1.846000000
C     4.869000000    -3.796000000    -0.530000000
H     5.137000000    -4.790000000    -0.182000000
C     4.957000000    -2.758000000     0.375000000
O     5.266000000    -3.178000000     1.633000000
C     5.633000000    -2.296000000     2.639000000
C     4.739000000    -1.972000000     3.693000000
H     3.671000000    -2.148000000     3.598000000
C     6.941000000    -1.788000000     2.632000000
H     7.683000000    -2.050000000     1.882000000
C     7.333000000    -0.900000000     3.662000000
H     8.285000000    -0.391000000     3.537000000
C     6.424000000    -0.516000000     4.663000000
H     6.770000000     0.019000000     5.544000000
C     5.129000000    -1.008000000     4.679000000
O     4.251000000    -0.698000000     5.704000000
C     2.999000000    -0.117000000     5.447000000
C     1.835000000    -0.579000000     6.108000000
H     1.990000000    -1.387000000     6.818000000
C     0.564000000    -0.043000000     5.747000000
O    -0.606000000    -0.710000000     6.110000000
C    -1.868000000    -0.166000000     6.460000000
C    -2.948000000    -0.453000000     5.578000000
H    -2.719000000    -1.112000000     4.744000000
C    -2.131000000     0.716000000     7.518000000
H    -1.305000000     1.147000000     8.078000000
C    -3.393000000     1.117000000     7.844000000
H    -3.499000000     1.798000000     8.684000000
C    -4.438000000     0.678000000     7.044000000
H    -5.430000000     1.065000000     7.260000000
C    -4.251000000    -0.115000000     5.940000000
O    -5.321000000    -0.460000000     5.153000000
C    -5.371000000    -0.488000000     3.752000000
C    -5.837000000    -1.511000000     3.052000000
H    -6.166000000    -2.384000000     3.609000000
C    -5.588000000    -1.621000000     1.687000000
O    -5.945000000    -2.819000000     1.061000000
C    -5.997000000    -2.972000000    -0.280000000
C    -6.916000000    -2.219000000    -1.034000000
H    -7.704000000    -1.634000000    -0.565000000
C    -6.833000000    -2.129000000    -2.432000000
H    -7.453000000    -1.390000000    -2.934000000
C    -5.867000000    -2.844000000    -3.145000000
H    -5.844000000    -2.785000000    -4.230000000
C    -5.044000000    -3.681000000    -2.390000000
C    -5.079000000    -3.742000000    -0.981000000
H    -4.451000000    -4.346000000    -0.331000000
C    -1.559000000    -1.550000000     1.544000000
H    -2.519000000    -2.047000000     1.429000000
C    -1.268000000    -0.656000000     0.507000000
H    -2.068000000    -0.540000000    -0.219000000
C    -0.053000000     0.023000000     0.612000000
C     0.326000000     0.904000000    -0.508000000
H    -0.528000000     1.427000000    -0.943000000
H     1.134000000     1.617000000    -0.327000000
H     0.734000000     0.262000000    -1.291000000
C     0.921000000    -0.392000000     1.527000000
H     1.905000000     0.056000000     1.421000000
C     0.609000000    -1.349000000     2.509000000
H     1.409000000    -1.753000000     3.123000000
C    -0.654000000    -1.896000000     2.555000000
C    -0.981000000    -3.008000000     3.538000000
O    -0.115000000    -3.480000000     4.215000000
O    -2.143000000    -3.422000000     3.534000000
O     0.308000000    -8.750000000     6.418000000
H     0.567000000    -7.952000000     5.957000000
H     0.279000000    -8.495000000     7.340000000
O    -1.178000000    -2.316000000     8.758000000
H    -1.251000000    -2.929000000     8.026000000
H    -1.828000000    -1.639000000     8.569000000
O    -1.870000000    -7.779000000     1.213000000
H    -2.249000000    -7.115000000     1.789000000
H    -1.246000000    -7.298000000     0.671000000
O    -4.287000000    -4.350000000     4.515000000
H    -4.345000000    -5.182000000     4.047000000
H    -3.592000000    -3.869000000     4.064000000
O     0.401000000    -5.429000000     7.891000000
H     0.153000000    -5.057000000     8.737000000
H     1.330000000    -5.637000000     7.983000000
O     0.917000000    -7.284000000     3.246000000
H     0.361000000    -6.956000000     3.952000000
H     0.637000000    -6.793000000     2.473000000
O    -0.373000000    -6.078000000     5.312000000
H    -0.346000000    -5.710000000     6.195000000
H    -0.312000000    -5.317000000     4.734000000
O    -0.337000000   -10.023000000     1.901000000
H    -0.649000000   -10.375000000     2.735000000
H    -0.891000000    -9.259000000     1.741000000
O     2.320000000    -4.052000000     4.808000000
H     1.531000000    -3.612000000     4.492000000
H     2.344000000    -3.856000000     5.745000000
O    -2.482000000    -5.976000000     3.016000000
H    -2.175000000    -5.072000000     2.947000000
H    -2.009000000    -6.332000000     3.768000000
O     4.796000000    -5.512000000     3.805000000
H     5.309000000    -5.867000000     4.530000000
H     4.112000000    -4.992000000     4.227000000
O    -2.702000000    -6.263000000     7.460000000
H    -2.421000000    -5.378000000     7.225000000
H    -1.893000000    -6.775000000     7.474000000
O     0.207000000    -6.412000000     0.355000000
H     0.476000000    -5.526000000     0.113000000
H     0.879000000    -6.979000000    -0.024000000
O    -4.814000000    -8.173000000     6.164000000
H    -4.176000000    -8.864000000     6.346000000
H    -4.446000000    -7.392000000     6.577000000
O     1.086000000    -3.915000000    -0.062000000
H     1.843000000    -4.189000000     0.456000000
H     0.896000000    -3.028000000     0.243000000
O     2.763000000    -4.599000000     2.027000000
H     2.454000000    -4.538000000     2.930000000
H     3.718000000    -4.606000000     2.100000000
O    -2.113000000    -3.582000000     6.519000000
H    -2.911000000    -3.652000000     5.995000000
H    -1.404000000    -3.571000000     5.875000000
O     3.350000000    -8.135000000     4.018000000
H     3.965000000    -7.441000000     3.780000000
H     2.516000000    -7.856000000     3.640000000
O    -6.827000000    -4.192000000     5.531000000
H    -5.980000000    -4.009000000     5.123000000
H    -6.631000000    -4.277000000     6.463000000
