218
-1462.63345
C     5.354000000    -0.956000000    -0.001000000
H     5.334000000     0.071000000     0.355000000
C     4.777000000    -1.378000000    -1.218000000
C     4.756000000    -2.736000000    -1.482000000
H     4.270000000    -3.146000000    -2.363000000
C     4.045000000    -0.305000000    -2.049000000
O     4.703000000     0.987000000    -2.125000000
H     3.023000000    -0.276000000    -1.644000000
O     3.798000000    -0.801000000    -3.395000000
C     2.556000000    -0.601000000    -3.955000000
C     1.693000000    -1.624000000    -3.972000000
H     1.931000000    -2.614000000    -3.594000000
C     0.430000000    -1.486000000    -4.468000000
O    -0.370000000    -2.593000000    -4.092000000
C    -0.002000000    -0.231000000    -4.991000000
C    -1.394000000     0.068000000    -5.610000000
H    -1.322000000     0.934000000    -6.271000000
C    -2.295000000     0.345000000    -4.379000000
C    -2.510000000     1.652000000    -3.929000000
H    -2.051000000     2.457000000    -4.497000000
H    -1.824000000    -0.747000000    -6.197000000
C     0.935000000     0.830000000    -4.953000000
H     0.638000000     1.824000000    -5.275000000
C     2.240000000     0.638000000    -4.458000000
C     3.232000000     1.794000000    -4.409000000
H     2.913000000     2.435000000    -5.234000000
H     4.239000000     1.535000000    -4.742000000
C     3.088000000     2.486000000    -3.013000000
C     2.246000000     3.579000000    -2.813000000
H     1.698000000     3.853000000    -3.710000000
C     3.869000000     2.044000000    -1.907000000
C     3.687000000     2.585000000    -0.659000000
H     4.175000000     2.170000000     0.219000000
C     2.734000000     3.601000000    -0.467000000
O     2.486000000     3.944000000     0.833000000
C     1.292000000     3.589000000     1.473000000
C     1.450000000     3.125000000     2.895000000
C     0.533000000     3.388000000     3.874000000
H    -0.308000000     4.038000000     3.645000000
C     2.534000000     2.205000000     3.181000000
H     3.196000000     1.898000000     2.375000000
O     0.338000000     4.622000000     1.383000000
H     0.885000000     2.810000000     0.811000000
C     2.039000000     4.103000000    -1.567000000
C     1.066000000     5.235000000    -1.373000000
H     1.025000000     5.928000000    -2.216000000
H     1.440000000     5.932000000    -0.620000000
C    -0.311000000     4.690000000    -0.970000000
C    -1.379000000     4.474000000    -1.837000000
H    -1.311000000     4.682000000    -2.902000000
C    -0.550000000     4.456000000     0.404000000
C    -1.741000000     3.927000000     0.882000000
H    -1.912000000     3.846000000     1.952000000
C    -2.711000000     3.589000000    -0.066000000
O    -3.851000000     2.889000000     0.383000000
C    -3.887000000     1.469000000     0.229000000
C    -4.427000000     0.849000000     1.533000000
C    -4.398000000     1.546000000     2.743000000
H    -4.018000000     2.563000000     2.695000000
C    -4.987000000    -0.443000000     1.510000000
H    -5.037000000    -0.949000000     0.549000000
O    -4.597000000     1.129000000    -1.006000000
H    -2.862000000     1.080000000     0.139000000
C    -2.541000000     3.917000000    -1.404000000
C    -3.614000000     3.377000000    -2.420000000
H    -3.635000000     4.046000000    -3.284000000
H    -4.611000000     3.413000000    -1.977000000
C    -3.346000000     1.956000000    -2.827000000
C    -3.844000000     0.874000000    -2.141000000
C    -3.639000000    -0.398000000    -2.542000000
H    -4.103000000    -1.233000000    -2.023000000
C    -2.872000000    -0.671000000    -3.631000000
O    -2.519000000    -2.000000000    -3.844000000
C    -1.337000000    -2.360000000    -3.090000000
H    -0.994000000    -1.608000000    -2.365000000
C    -1.415000000    -3.690000000    -2.293000000
C    -0.291000000    -4.360000000    -1.818000000
H     0.700000000    -3.991000000    -2.068000000
C    -2.661000000    -4.080000000    -1.781000000
H    -3.544000000    -3.462000000    -1.924000000
C    -2.893000000    -5.127000000    -0.877000000
O    -4.145000000    -5.598000000    -0.503000000
C    -1.720000000    -5.970000000    -0.695000000
H    -1.729000000    -6.949000000    -0.223000000
C    -0.459000000    -5.497000000    -1.001000000
O     0.653000000    -6.189000000    -0.453000000
C     1.847000000    -6.181000000    -1.121000000
C     2.948000000    -5.537000000    -0.590000000
H     2.901000000    -4.946000000     0.321000000
C     1.962000000    -6.835000000    -2.339000000
H     1.126000000    -7.339000000    -2.817000000
C     3.215000000    -7.035000000    -2.970000000
H     3.351000000    -7.555000000    -3.915000000
C     4.330000000    -6.452000000    -2.293000000
H     5.344000000    -6.572000000    -2.668000000
C     4.175000000    -5.587000000    -1.216000000
O     5.293000000    -4.950000000    -0.777000000
C     5.468000000    -3.594000000    -0.653000000
C     6.162000000    -3.145000000     0.415000000
H     6.600000000    -3.912000000     1.048000000
C     6.033000000    -1.844000000     0.801000000
O     6.598000000    -1.425000000     2.001000000
C     6.336000000    -0.307000000     2.793000000
C     5.241000000    -0.311000000     3.632000000
H     4.518000000    -1.123000000     3.605000000
C     7.237000000     0.779000000     2.892000000
H     8.099000000     0.842000000     2.234000000
C     6.892000000     1.828000000     3.757000000
H     7.544000000     2.696000000     3.810000000
C     5.664000000     1.874000000     4.498000000
H     5.486000000     2.774000000     5.081000000
C     4.803000000     0.835000000     4.274000000
O     3.553000000     0.854000000     4.853000000
C     2.701000000     1.817000000     4.482000000
C     1.838000000     2.205000000     5.502000000
H     1.946000000     1.815000000     6.511000000
C     0.733000000     2.983000000     5.175000000
O    -0.296000000     3.135000000     6.111000000
C    -1.624000000     3.420000000     5.849000000
C    -2.487000000     2.440000000     5.553000000
H    -2.127000000     1.424000000     5.414000000
C    -2.070000000     4.745000000     6.051000000
H    -1.356000000     5.502000000     6.365000000
C    -3.452000000     4.938000000     6.099000000
H    -3.798000000     5.945000000     6.320000000
C    -4.307000000     3.865000000     5.791000000
H    -5.356000000     4.130000000     5.896000000
C    -3.862000000     2.622000000     5.428000000
O    -4.645000000     1.491000000     5.157000000
C    -4.734000000     0.848000000     3.883000000
C    -5.277000000    -0.404000000     3.880000000
H    -5.494000000    -0.761000000     4.883000000
C    -5.451000000    -1.056000000     2.665000000
O    -5.892000000    -2.371000000     2.603000000
C    -6.075000000    -3.151000000     1.512000000
C    -7.235000000    -2.998000000     0.711000000
H    -8.069000000    -2.398000000     1.069000000
C    -7.276000000    -3.628000000    -0.516000000
H    -8.094000000    -3.513000000    -1.223000000
C    -6.280000000    -4.546000000    -0.925000000
H    -6.433000000    -5.005000000    -1.898000000
C    -5.108000000    -4.670000000    -0.150000000
C    -5.022000000    -3.933000000     1.035000000
H    -4.155000000    -4.094000000     1.671000000
C    -0.912000000    -2.173000000     0.878000000
H    -1.655000000    -2.966000000     0.847000000
C    -1.023000000    -1.145000000     0.027000000
H    -1.955000000    -1.197000000    -0.530000000
C     0.013000000    -0.223000000    -0.196000000
C    -0.150000000     0.905000000    -1.137000000
H    -1.173000000     1.287000000    -1.118000000
H     0.578000000     1.711000000    -1.019000000
H    -0.096000000     0.468000000    -2.136000000
C     1.251000000    -0.351000000     0.518000000
H     2.101000000     0.328000000     0.522000000
C     1.378000000    -1.421000000     1.350000000
H     2.310000000    -1.542000000     1.895000000
C     0.318000000    -2.301000000     1.578000000
C     0.464000000    -3.363000000     2.655000000
O     1.376000000    -3.197000000     3.459000000
O    -0.394000000    -4.188000000     2.821000000
O    -1.861000000    -2.667000000     6.289000000
H    -1.243000000    -3.152000000     5.742000000
H    -1.403000000    -1.856000000     6.507000000
O     0.603000000    -6.499000000     2.749000000
H     0.154000000    -5.676000000     2.556000000
H    -0.101000000    -7.144000000     2.825000000
O    -0.285000000    -0.338000000     6.460000000
H     0.621000000    -0.567000000     6.667000000
H    -0.303000000    -0.273000000     5.505000000
O    -2.215000000    -6.451000000     6.689000000
H    -1.566000000    -5.907000000     6.243000000
H    -1.716000000    -6.922000000     7.356000000
O     2.864000000    -5.490000000     3.278000000
H     2.530000000    -4.610000000     3.102000000
H     2.109000000    -6.064000000     3.149000000
O     5.141000000    -6.821000000     2.144000000
H     4.424000000    -6.791000000     2.779000000
H     4.894000000    -6.184000000     1.474000000
O    -1.797000000    -8.240000000     3.009000000
H    -2.442000000    -8.526000000     3.655000000
H    -1.624000000    -9.019000000     2.482000000
O     1.270000000    -8.874000000     1.050000000
H     1.399000000    -7.956000000     1.289000000
H     0.319000000    -8.983000000     1.021000000
O     5.398000000    -3.908000000     3.867000000
H     4.849000000    -3.524000000     4.551000000
H     4.889000000    -4.649000000     3.539000000
O    -5.423000000    -6.586000000     3.532000000
H    -4.659000000    -6.013000000     3.471000000
H    -6.171000000    -5.999000000     3.422000000
O     2.672000000    -5.500000000     6.277000000
H     2.884000000    -5.646000000     5.355000000
H     3.466000000    -5.113000000     6.646000000
O    -4.063000000    -4.090000000     5.333000000
H    -3.770000000    -4.719000000     4.674000000
H    -3.256000000    -3.791000000     5.754000000
O    -0.103000000    -4.774000000     5.714000000
H     0.630000000    -5.278000000     6.068000000
H     0.080000000    -4.712000000     4.776000000
O    -0.551000000    -0.446000000     3.788000000
H     0.106000000    -1.136000000     3.699000000
H    -0.789000000    -0.225000000     2.887000000
O     3.345000000    -2.771000000     5.208000000
H     3.126000000    -2.035000000     5.780000000
H     2.576000000    -2.875000000     4.647000000
O    -2.718000000    -5.355000000     3.378000000
H    -2.352000000    -6.236000000     3.290000000
H    -2.013000000    -4.774000000     3.093000000
O    -0.995000000    -3.639000000     8.831000000
H    -1.260000000    -3.549000000     7.916000000
H    -0.218000000    -4.197000000     8.802000000
O     2.420000000    -0.965000000     7.124000000
H     2.717000000    -0.196000000     7.610000000
H     2.634000000    -1.706000000     7.691000000
O     1.453000000    -7.743000000     6.359000000
H     2.073000000    -7.020000000     6.259000000
H     1.138000000    -7.665000000     7.259000000
