218
-1462.82824
C     4.661000000    -1.988000000     1.874000000
H     4.969000000    -0.971000000     2.106000000
C     4.164000000    -2.153000000     0.562000000
C     3.877000000    -3.462000000     0.161000000
H     3.558000000    -3.546000000    -0.875000000
C     3.893000000    -1.041000000    -0.464000000
O     4.821000000     0.020000000    -0.225000000
H     2.871000000    -0.642000000    -0.387000000
O     4.051000000    -1.577000000    -1.800000000
C     3.356000000    -1.101000000    -2.869000000
C     2.408000000    -1.938000000    -3.450000000
H     2.311000000    -2.957000000    -3.085000000
C     1.438000000    -1.454000000    -4.336000000
O     0.342000000    -2.214000000    -4.439000000
C     1.479000000    -0.154000000    -4.841000000
C     0.395000000     0.499000000    -5.707000000
H     0.817000000     1.384000000    -6.188000000
C    -0.821000000     1.045000000    -4.926000000
C    -0.877000000     2.365000000    -4.438000000
H     0.000000000     2.943000000    -4.720000000
H     0.074000000    -0.194000000    -6.487000000
C     2.449000000     0.681000000    -4.266000000
H     2.424000000     1.717000000    -4.595000000
C     3.454000000     0.264000000    -3.299000000
C     4.589000000     1.176000000    -2.865000000
H     4.791000000     1.869000000    -3.684000000
H     5.539000000     0.667000000    -2.691000000
C     4.235000000     1.913000000    -1.618000000
C     3.539000000     3.148000000    -1.702000000
H     3.223000000     3.598000000    -2.640000000
C     4.368000000     1.308000000    -0.361000000
C     4.001000000     1.925000000     0.773000000
H     4.156000000     1.497000000     1.760000000
C     3.493000000     3.182000000     0.742000000
O     2.892000000     3.675000000     1.899000000
C     1.551000000     3.290000000     2.117000000
C     1.241000000     2.778000000     3.530000000
C     0.047000000     3.121000000     4.156000000
H    -0.615000000     3.794000000     3.617000000
C     2.153000000     2.051000000     4.265000000
H     3.146000000     1.924000000     3.840000000
O     0.850000000     4.538000000     1.834000000
H     1.328000000     2.530000000     1.354000000
C     3.154000000     3.781000000    -0.515000000
C     2.374000000     5.144000000    -0.523000000
H     2.701000000     5.621000000    -1.449000000
H     2.646000000     5.752000000     0.343000000
C     0.852000000     4.903000000    -0.561000000
C     0.142000000     4.817000000    -1.768000000
H     0.742000000     4.854000000    -2.673000000
C     0.151000000     4.632000000     0.662000000
C    -1.224000000     4.456000000     0.639000000
H    -1.784000000     4.444000000     1.570000000
C    -1.926000000     4.266000000    -0.551000000
O    -3.130000000     3.673000000    -0.507000000
C    -3.224000000     2.277000000    -0.789000000
C    -4.142000000     1.533000000     0.235000000
C    -4.145000000     1.868000000     1.583000000
H    -3.596000000     2.751000000     1.900000000
C    -4.887000000     0.457000000    -0.298000000
H    -4.915000000     0.185000000    -1.351000000
O    -3.644000000     2.040000000    -2.063000000
H    -2.204000000     1.880000000    -0.678000000
C    -1.206000000     4.349000000    -1.780000000
C    -1.897000000     4.178000000    -3.123000000
H    -1.470000000     4.915000000    -3.805000000
H    -2.926000000     4.542000000    -3.124000000
C    -1.880000000     2.744000000    -3.562000000
C    -2.805000000     1.784000000    -3.058000000
C    -2.831000000     0.470000000    -3.598000000
H    -3.560000000    -0.204000000    -3.157000000
C    -1.878000000     0.115000000    -4.526000000
O    -1.734000000    -1.289000000    -4.627000000
C    -0.880000000    -1.916000000    -3.739000000
H    -0.546000000    -1.266000000    -2.916000000
C    -1.457000000    -3.166000000    -3.175000000
C    -0.711000000    -4.069000000    -2.435000000
H     0.346000000    -3.996000000    -2.195000000
C    -2.854000000    -3.298000000    -3.271000000
H    -3.540000000    -2.551000000    -3.660000000
C    -3.460000000    -4.434000000    -2.664000000
O    -4.799000000    -4.632000000    -2.782000000
C    -2.640000000    -5.462000000    -2.124000000
H    -3.121000000    -6.390000000    -1.828000000
C    -1.292000000    -5.244000000    -1.989000000
O    -0.545000000    -6.094000000    -1.201000000
C     0.754000000    -6.309000000    -1.419000000
C     1.567000000    -6.100000000    -0.297000000
H     1.130000000    -5.736000000     0.629000000
C     1.283000000    -6.591000000    -2.674000000
H     0.542000000    -6.660000000    -3.467000000
C     2.654000000    -6.667000000    -2.766000000
H     3.076000000    -6.743000000    -3.765000000
C     3.456000000    -6.504000000    -1.645000000
H     4.541000000    -6.454000000    -1.685000000
C     2.926000000    -6.121000000    -0.442000000
O     3.772000000    -5.880000000     0.653000000
C     4.102000000    -4.564000000     0.992000000
C     4.370000000    -4.423000000     2.303000000
H     4.304000000    -5.236000000     3.021000000
C     4.685000000    -3.126000000     2.751000000
O     4.929000000    -2.977000000     4.120000000
C     5.041000000    -1.761000000     4.713000000
C     3.865000000    -1.205000000     5.250000000
H     2.952000000    -1.766000000     5.071000000
C     6.289000000    -1.084000000     4.875000000
H     7.105000000    -1.617000000     4.394000000
C     6.357000000     0.144000000     5.492000000
H     7.325000000     0.637000000     5.453000000
C     5.150000000     0.679000000     5.977000000
H     5.109000000     1.651000000     6.463000000
C     3.915000000     0.045000000     5.879000000
O     2.777000000     0.734000000     6.309000000
C     1.935000000     1.588000000     5.557000000
C     0.723000000     1.875000000     6.096000000
H     0.407000000     1.627000000     7.107000000
C    -0.230000000     2.697000000     5.414000000
O    -1.276000000     3.198000000     6.115000000
C    -2.568000000     3.290000000     5.622000000
C    -3.144000000     2.408000000     4.713000000
H    -2.479000000     1.625000000     4.358000000
C    -3.415000000     4.191000000     6.210000000
H    -3.079000000     4.930000000     6.933000000
C    -4.734000000     4.416000000     5.752000000
H    -5.279000000     5.246000000     6.195000000
C    -5.310000000     3.462000000     4.892000000
H    -6.346000000     3.559000000     4.577000000
C    -4.513000000     2.398000000     4.379000000
O    -5.076000000     1.305000000     3.831000000
C    -4.905000000     1.083000000     2.485000000
C    -5.611000000     0.025000000     1.929000000
H    -6.253000000    -0.479000000     2.646000000
C    -5.637000000    -0.253000000     0.584000000
O    -6.492000000    -1.285000000     0.194000000
C    -6.557000000    -1.903000000    -1.042000000
C    -7.562000000    -1.578000000    -1.983000000
H    -8.127000000    -0.661000000    -1.838000000
C    -7.611000000    -2.250000000    -3.157000000
H    -8.333000000    -1.971000000    -3.920000000
C    -6.611000000    -3.221000000    -3.509000000
H    -6.589000000    -3.767000000    -4.449000000
C    -5.681000000    -3.640000000    -2.549000000
C    -5.641000000    -2.909000000    -1.295000000
H    -4.895000000    -3.282000000    -0.598000000
C    -1.853000000    -1.671000000     0.852000000
H    -2.765000000    -2.237000000     0.681000000
C    -1.358000000    -0.859000000    -0.145000000
H    -1.818000000    -0.790000000    -1.128000000
C    -0.132000000    -0.183000000     0.064000000
C     0.435000000     0.742000000    -1.007000000
H     1.498000000     0.960000000    -0.881000000
H     0.285000000     0.369000000    -2.022000000
H    -0.139000000     1.671000000    -1.031000000
C     0.460000000    -0.196000000     1.278000000
H     1.404000000     0.308000000     1.469000000
C    -0.044000000    -1.004000000     2.297000000
H     0.467000000    -1.013000000     3.257000000
C    -1.283000000    -1.657000000     2.142000000
C    -1.821000000    -2.559000000     3.251000000
O    -1.329000000    -2.478000000     4.345000000
O    -2.800000000    -3.200000000     3.055000000
O    -6.719000000    -1.680000000     5.665000000
H    -7.428000000    -1.286000000     6.173000000
H    -6.218000000    -0.935000000     5.334000000
O    -3.138000000    -5.969000000     2.782000000
H    -2.780000000    -5.083000000     2.730000000
H    -3.798000000    -5.922000000     3.473000000
O    -2.072000000    -2.239000000     8.935000000
H    -1.875000000    -1.662000000     8.197000000
H    -2.950000000    -2.572000000     8.750000000
O    -1.573000000    -5.969000000     8.170000000
H    -0.623000000    -5.892000000     8.258000000
H    -1.762000000    -5.617000000     7.300000000
O    -4.994000000    -5.894000000     4.863000000
H    -5.030000000    -6.200000000     5.770000000
H    -5.566000000    -5.127000000     4.847000000
O    -2.447000000    -7.832000000     5.106000000
H    -2.546000000    -6.885000000     5.202000000
H    -2.923000000    -8.043000000     4.302000000
O    -0.994000000    -7.027000000     1.744000000
H    -1.168000000    -7.002000000     0.803000000
H    -1.802000000    -6.708000000     2.146000000
O    -4.894000000    -2.324000000     7.928000000
H    -5.334000000    -1.597000000     8.370000000
H    -4.667000000    -1.977000000     7.065000000
O    -4.692000000    -5.833000000     0.268000000
H    -4.689000000    -6.758000000     0.019000000
H    -3.890000000    -5.720000000     0.778000000
O    -3.955000000    -0.866000000     5.727000000
H    -3.428000000    -0.186000000     6.147000000
H    -3.364000000    -1.268000000     5.090000000
O     0.832000000    -6.256000000     3.420000000
H    -0.057000000    -6.308000000     3.068000000
H     1.205000000    -7.123000000     3.257000000
O    -2.473000000    -4.932000000     5.938000000
H    -3.375000000    -4.807000000     5.645000000
H    -1.966000000    -4.302000000     5.426000000
O    -3.208000000     0.910000000     7.681000000
H    -2.781000000     1.766000000     7.719000000
H    -3.258000000     0.626000000     8.593000000
O    -0.687000000    -1.033000000     6.725000000
H    -1.173000000    -1.499000000     6.045000000
H    -0.079000000    -0.473000000     6.244000000
O     1.110000000    -3.842000000     4.963000000
H     0.455000000    -3.248000000     4.595000000
H     1.332000000    -4.430000000     4.241000000
O     0.112000000    -7.220000000     5.750000000
H     0.519000000    -6.830000000     4.976000000
H    -0.683000000    -7.636000000     5.419000000
O    -5.407000000    -3.370000000     3.543000000
H    -4.498000000    -3.305000000     3.251000000
H    -5.589000000    -2.522000000     3.949000000
O    -6.902000000    -4.812000000     1.883000000
H    -6.261000000    -5.104000000     1.235000000
H    -6.406000000    -4.242000000     2.470000000
O     2.003000000    -3.058000000     7.346000000
H     1.644000000    -3.282000000     6.488000000
H     1.298000000    -3.261000000     7.961000000
