218
-1473.13924
C     5.009000000    -2.069000000    -0.122000000
H     5.307000000    -1.062000000     0.160000000
C     4.249000000    -2.257000000    -1.233000000
C     3.662000000    -3.522000000    -1.430000000
H     2.965000000    -3.616000000    -2.259000000
C     3.800000000    -1.037000000    -1.989000000
O     4.784000000     0.016000000    -2.006000000
H     2.922000000    -0.664000000    -1.441000000
O     3.440000000    -1.309000000    -3.391000000
C     2.279000000    -0.812000000    -4.030000000
C     1.197000000    -1.602000000    -4.113000000
H     1.248000000    -2.617000000    -3.728000000
C    -0.051000000    -1.080000000    -4.595000000
O    -1.095000000    -1.826000000    -4.475000000
C    -0.121000000     0.254000000    -4.936000000
C    -1.450000000     0.883000000    -5.332000000
H    -1.428000000     1.729000000    -6.023000000
C    -2.375000000     1.241000000    -4.169000000
C    -2.393000000     2.584000000    -3.758000000
H    -1.760000000     3.286000000    -4.294000000
H    -1.906000000     0.078000000    -5.912000000
C     1.026000000     1.030000000    -4.850000000
H     0.760000000     2.075000000    -4.988000000
C     2.239000000     0.514000000    -4.393000000
C     3.477000000     1.382000000    -4.278000000
H     3.419000000     2.187000000    -5.013000000
H     4.424000000     0.914000000    -4.556000000
C     3.662000000     1.905000000    -2.848000000
C     2.857000000     3.022000000    -2.554000000
H     2.200000000     3.515000000    -3.265000000
C     4.298000000     1.303000000    -1.766000000
C     4.279000000     1.777000000    -0.454000000
H     4.847000000     1.272000000     0.323000000
C     3.452000000     2.854000000    -0.227000000
O     3.436000000     3.353000000     1.025000000
C     2.142000000     3.170000000     1.741000000
C     2.215000000     2.547000000     3.106000000
C     1.244000000     2.802000000     4.121000000
H     0.374000000     3.428000000     3.940000000
C     3.259000000     1.700000000     3.467000000
H     4.013000000     1.372000000     2.755000000
O     1.342000000     4.393000000     1.744000000
H     1.698000000     2.342000000     1.169000000
C     2.749000000     3.451000000    -1.261000000
C     1.972000000     4.753000000    -1.019000000
H     1.984000000     5.275000000    -1.978000000
H     2.575000000     5.467000000    -0.454000000
C     0.566000000     4.589000000    -0.465000000
C    -0.489000000     4.624000000    -1.369000000
H    -0.445000000     4.837000000    -2.434000000
C     0.242000000     4.483000000     0.862000000
C    -1.094000000     4.320000000     1.313000000
H    -1.273000000     4.319000000     2.386000000
C    -2.077000000     4.186000000     0.325000000
O    -3.305000000     3.851000000     0.757000000
C    -3.681000000     2.487000000     0.451000000
C    -4.347000000     1.764000000     1.600000000
C    -4.135000000     2.329000000     2.893000000
H    -3.442000000     3.146000000     3.078000000
C    -5.125000000     0.624000000     1.561000000
H    -5.318000000     0.259000000     0.556000000
O    -4.508000000     2.393000000    -0.771000000
H    -2.795000000     1.843000000     0.347000000
C    -1.787000000     4.454000000    -0.992000000
C    -2.844000000     4.366000000    -2.070000000
H    -2.560000000     5.048000000    -2.874000000
H    -3.716000000     4.855000000    -1.630000000
C    -3.101000000     2.957000000    -2.594000000
C    -3.921000000     2.021000000    -1.951000000
C    -3.859000000     0.722000000    -2.379000000
H    -4.438000000    -0.087000000    -1.941000000
C    -3.117000000     0.314000000    -3.443000000
O    -3.125000000    -0.988000000    -3.666000000
C    -1.976000000    -1.729000000    -3.300000000
H    -1.429000000    -1.321000000    -2.437000000
C    -2.372000000    -3.118000000    -2.854000000
C    -1.483000000    -4.208000000    -3.022000000
H    -0.608000000    -4.078000000    -3.653000000
C    -3.460000000    -3.289000000    -1.929000000
H    -3.984000000    -2.403000000    -1.580000000
C    -3.736000000    -4.520000000    -1.361000000
O    -4.582000000    -4.659000000    -0.241000000
C    -2.906000000    -5.559000000    -1.610000000
H    -3.126000000    -6.529000000    -1.172000000
C    -1.832000000    -5.423000000    -2.507000000
O    -0.960000000    -6.506000000    -2.660000000
C     0.391000000    -6.413000000    -2.804000000
C     1.202000000    -5.999000000    -1.723000000
H     0.794000000    -5.490000000    -0.853000000
C     0.976000000    -7.027000000    -3.914000000
H     0.285000000    -7.395000000    -4.668000000
C     2.375000000    -7.210000000    -4.007000000
H     2.904000000    -7.573000000    -4.885000000
C     3.168000000    -6.700000000    -3.020000000
H     4.230000000    -6.915000000    -2.934000000
C     2.594000000    -6.143000000    -1.891000000
O     3.428000000    -5.788000000    -0.895000000
C     3.851000000    -4.578000000    -0.575000000
C     4.642000000    -4.347000000     0.525000000
H     4.715000000    -5.205000000     1.188000000
C     5.165000000    -3.100000000     0.766000000
O     5.890000000    -2.983000000     1.954000000
C     6.054000000    -1.798000000     2.653000000
C     5.010000000    -1.346000000     3.481000000
H     4.005000000    -1.755000000     3.545000000
C     7.313000000    -1.195000000     2.671000000
H     8.128000000    -1.651000000     2.115000000
C     7.660000000    -0.170000000     3.559000000
H     8.674000000     0.215000000     3.485000000
C     6.598000000     0.274000000     4.400000000
H     6.779000000     1.000000000     5.189000000
C     5.294000000    -0.225000000     4.241000000
O     4.333000000     0.305000000     5.163000000
C     3.347000000     1.217000000     4.790000000
C     2.430000000     1.630000000     5.780000000
H     2.495000000     1.262000000     6.801000000
C     1.323000000     2.373000000     5.445000000
O     0.402000000     2.594000000     6.457000000
C    -0.812000000     3.202000000     6.206000000
C    -1.880000000     2.394000000     5.793000000
H    -1.711000000     1.327000000     5.666000000
C    -1.038000000     4.555000000     6.522000000
H    -0.148000000     5.127000000     6.772000000
C    -2.319000000     5.105000000     6.359000000
H    -2.480000000     6.174000000     6.468000000
C    -3.364000000     4.299000000     5.847000000
H    -4.337000000     4.701000000     5.574000000
C    -3.171000000     2.937000000     5.609000000
O    -4.281000000     2.093000000     5.340000000
C    -4.636000000     1.678000000     4.073000000
C    -5.288000000     0.469000000     3.953000000
H    -5.531000000    -0.057000000     4.873000000
C    -5.454000000    -0.089000000     2.729000000
O    -5.992000000    -1.289000000     2.819000000
C    -6.208000000    -2.040000000     1.648000000
C    -7.328000000    -1.754000000     0.905000000
H    -8.043000000    -1.030000000     1.287000000
C    -7.555000000    -2.529000000    -0.245000000
H    -8.490000000    -2.322000000    -0.758000000
C    -6.646000000    -3.516000000    -0.650000000
H    -6.781000000    -4.077000000    -1.571000000
C    -5.470000000    -3.669000000     0.096000000
C    -5.280000000    -2.993000000     1.267000000
H    -4.348000000    -3.303000000     1.732000000
C    -1.004000000    -2.700000000     0.774000000
H    -1.888000000    -3.248000000     1.088000000
C    -1.040000000    -1.397000000     0.161000000
H    -1.999000000    -0.986000000    -0.145000000
C     0.144000000    -0.702000000    -0.069000000
C     0.085000000     0.705000000    -0.616000000
H     1.016000000     1.038000000    -1.081000000
H    -0.480000000     0.762000000    -1.549000000
H    -0.324000000     1.407000000     0.113000000
C     1.270000000    -1.157000000     0.549000000
H     2.058000000    -0.431000000     0.731000000
C     1.309000000    -2.448000000     1.099000000
H     2.295000000    -2.791000000     1.402000000
C     0.188000000    -3.260000000     1.178000000
C     0.338000000    -4.512000000     2.044000000
O     1.372000000    -4.964000000     2.469000000
O    -0.692000000    -5.134000000     2.394000000
O    -5.026000000    -5.497000000     3.355000000
H    -5.766000000    -4.893000000     3.419000000
H    -4.262000000    -4.965000000     3.575000000
O    -2.719000000    -1.305000000     4.616000000
H    -3.015000000    -2.130000000     4.231000000
H    -1.851000000    -1.162000000     4.238000000
O    -0.270000000    -1.204000000     6.332000000
H    -0.247000000    -0.710000000     5.512000000
H    -0.940000000    -1.873000000     6.190000000
O    -0.452000000    -9.644000000     2.537000000
H     0.280000000   -10.029000000     2.055000000
H    -1.222000000    -9.845000000     2.005000000
O     0.622000000    -6.383000000     6.965000000
H     0.273000000    -7.220000000     7.274000000
H     0.642000000    -6.468000000     6.012000000
O    -0.613000000    -8.301000000    -0.269000000
H    -1.277000000    -7.888000000     0.282000000
H    -0.568000000    -7.746000000    -1.048000000
O     3.117000000    -5.735000000     4.455000000
H     3.986000000    -5.972000000     4.129000000
H     2.652000000    -5.410000000     3.684000000
O     2.106000000    -8.354000000     5.104000000
H     2.481000000    -8.853000000     4.378000000
H     2.367000000    -7.449000000     4.934000000
O     2.556000000    -9.755000000     2.665000000
H     2.279000000    -8.899000000     2.338000000
H     2.610000000   -10.304000000     1.883000000
O    -0.099000000    -0.684000000     3.552000000
H    -0.157000000    -0.519000000     2.611000000
H     0.635000000    -1.291000000     3.644000000
O     2.561000000    -7.124000000     1.620000000
H     3.104000000    -6.718000000     0.945000000
H     1.846000000    -6.503000000     1.759000000
O    -2.337000000    -6.918000000     1.451000000
H    -2.793000000    -6.312000000     0.867000000
H    -1.768000000    -6.359000000     1.979000000
O    -0.765000000    -7.212000000     4.419000000
H    -0.621000000    -8.068000000     4.016000000
H    -0.554000000    -6.583000000     3.728000000
O    -1.354000000    -4.208000000     6.394000000
H    -0.992000000    -5.086000000     6.518000000
H    -2.030000000    -4.131000000     7.066000000
O     1.806000000    -2.807000000     4.096000000
H     1.766000000    -3.720000000     3.811000000
H     1.957000000    -2.857000000     5.040000000
O     2.133000000    -2.242000000     7.003000000
H     1.255000000    -1.881000000     6.880000000
H     2.051000000    -2.818000000     7.763000000
O    -2.537000000    -3.886000000     3.810000000
H    -1.861000000    -4.366000000     3.330000000
H    -2.295000000    -3.988000000     4.730000000
O     3.147000000    -5.704000000     7.031000000
H     2.192000000    -5.693000000     7.107000000
H     3.313000000    -5.692000000     6.089000000
O     1.826000000    -9.823000000    -0.133000000
H     1.119000000    -9.178000000    -0.167000000
H     1.403000000   -10.653000000    -0.350000000
