218
-1457.71186
C     5.079000000    -1.229000000    -1.840000000
H     5.258000000    -0.182000000    -1.611000000
C     3.895000000    -1.462000000    -2.557000000
C     3.511000000    -2.793000000    -2.735000000
H     2.582000000    -2.892000000    -3.290000000
C     3.073000000    -0.233000000    -3.010000000
O     3.872000000     0.941000000    -3.152000000
H     2.344000000     0.032000000    -2.231000000
O     2.423000000    -0.462000000    -4.293000000
C     1.176000000     0.050000000    -4.551000000
C     0.186000000    -0.915000000    -4.440000000
H     0.332000000    -1.968000000    -4.214000000
C    -1.195000000    -0.503000000    -4.470000000
O    -2.126000000    -1.546000000    -4.221000000
C    -1.490000000     0.882000000    -4.544000000
C    -2.995000000     1.309000000    -4.509000000
H    -3.136000000     2.317000000    -4.904000000
C    -3.401000000     1.422000000    -3.057000000
C    -3.198000000     2.628000000    -2.351000000
H    -2.641000000     3.365000000    -2.925000000
H    -3.733000000     0.661000000    -4.986000000
C    -0.495000000     1.790000000    -4.703000000
H    -0.782000000     2.832000000    -4.819000000
C     0.852000000     1.418000000    -4.598000000
C     1.990000000     2.381000000    -4.613000000
H     1.709000000     3.279000000    -5.167000000
H     2.806000000     1.896000000    -5.152000000
C     2.469000000     2.869000000    -3.217000000
C     1.928000000     3.934000000    -2.547000000
H     1.219000000     4.473000000    -3.170000000
C     3.414000000     2.124000000    -2.623000000
C     3.704000000     2.395000000    -1.273000000
H     4.367000000     1.771000000    -0.679000000
C     3.018000000     3.394000000    -0.572000000
O     3.194000000     3.515000000     0.738000000
C     2.181000000     2.934000000     1.629000000
C     2.891000000     2.216000000     2.768000000
C     2.088000000     1.862000000     3.854000000
H     1.032000000     2.109000000     3.787000000
C     4.109000000     1.573000000     2.545000000
H     4.751000000     1.891000000     1.727000000
O     1.350000000     3.974000000     2.142000000
H     1.458000000     2.247000000     1.163000000
C     2.073000000     4.199000000    -1.155000000
C     1.237000000     5.297000000    -0.468000000
H     0.959000000     6.028000000    -1.230000000
H     1.875000000     5.904000000     0.177000000
C     0.038000000     4.800000000     0.283000000
C    -1.227000000     4.832000000    -0.351000000
H    -1.350000000     5.245000000    -1.349000000
C     0.156000000     4.210000000     1.543000000
C    -0.966000000     3.878000000     2.257000000
H    -0.906000000     3.601000000     3.307000000
C    -2.198000000     3.816000000     1.622000000
O    -3.277000000     3.248000000     2.234000000
C    -3.509000000     1.876000000     1.954000000
C    -3.811000000     1.083000000     3.128000000
C    -3.249000000     1.298000000     4.375000000
H    -2.604000000     2.155000000     4.548000000
C    -4.487000000    -0.107000000     2.874000000
H    -4.791000000    -0.473000000     1.897000000
O    -4.487000000     1.747000000     0.940000000
H    -2.595000000     1.389000000     1.583000000
C    -2.355000000     4.303000000     0.279000000
C    -3.631000000     4.143000000    -0.449000000
H    -3.711000000     4.868000000    -1.262000000
H    -4.483000000     4.252000000     0.225000000
C    -3.608000000     2.752000000    -1.041000000
C    -4.234000000     1.673000000    -0.416000000
C    -4.292000000     0.418000000    -0.984000000
H    -4.710000000    -0.421000000    -0.433000000
C    -3.882000000     0.286000000    -2.337000000
O    -3.912000000    -0.999000000    -2.961000000
C    -2.688000000    -1.576000000    -2.931000000
H    -2.061000000    -0.983000000    -2.249000000
C    -2.754000000    -2.941000000    -2.253000000
C    -1.818000000    -3.946000000    -2.594000000
H    -1.069000000    -3.653000000    -3.326000000
C    -3.765000000    -3.270000000    -1.341000000
H    -4.553000000    -2.540000000    -1.171000000
C    -3.913000000    -4.602000000    -0.879000000
O    -5.024000000    -5.019000000    -0.246000000
C    -3.004000000    -5.548000000    -1.316000000
H    -3.164000000    -6.616000000    -1.193000000
C    -1.870000000    -5.193000000    -2.046000000
O    -0.998000000    -6.225000000    -2.525000000
C     0.222000000    -5.933000000    -3.185000000
C     1.351000000    -5.640000000    -2.414000000
H     1.278000000    -5.561000000    -1.332000000
C     0.195000000    -5.992000000    -4.543000000
H    -0.674000000    -6.268000000    -5.134000000
C     1.383000000    -5.726000000    -5.171000000
H     1.450000000    -5.775000000    -6.254000000
C     2.582000000    -5.537000000    -4.477000000
H     3.513000000    -5.339000000    -5.003000000
C     2.545000000    -5.483000000    -3.118000000
O     3.709000000    -5.154000000    -2.422000000
C     4.183000000    -3.856000000    -2.221000000
C     5.294000000    -3.606000000    -1.409000000
H     5.919000000    -4.412000000    -1.033000000
C     5.752000000    -2.316000000    -1.265000000
O     6.848000000    -2.079000000    -0.520000000
C     7.022000000    -1.068000000     0.276000000
C     6.241000000    -0.886000000     1.421000000
H     5.483000000    -1.615000000     1.696000000
C     8.047000000    -0.135000000    -0.058000000
H     8.634000000    -0.205000000    -0.970000000
C     8.265000000     0.925000000     0.824000000
H     9.085000000     1.610000000     0.623000000
C     7.480000000     1.157000000     1.983000000
H     7.503000000     1.941000000     2.735000000
C     6.520000000     0.194000000     2.207000000
O     5.940000000     0.218000000     3.386000000
C     4.680000000     0.754000000     3.514000000
C     3.882000000     0.475000000     4.606000000
H     4.213000000    -0.281000000     5.313000000
C     2.593000000     1.020000000     4.825000000
O     1.843000000     0.587000000     5.917000000
C     0.705000000     1.184000000     6.413000000
C    -0.534000000     0.503000000     6.231000000
H    -0.684000000    -0.407000000     5.656000000
C     0.782000000     2.409000000     7.118000000
H     1.735000000     2.921000000     7.223000000
C    -0.382000000     2.993000000     7.607000000
H    -0.359000000     3.963000000     8.097000000
C    -1.597000000     2.353000000     7.382000000
H    -2.518000000     2.784000000     7.766000000
C    -1.598000000     1.070000000     6.773000000
O    -2.814000000     0.442000000     6.604000000
C    -3.402000000     0.331000000     5.351000000
C    -4.111000000    -0.829000000     5.136000000
H    -4.041000000    -1.632000000     5.866000000
C    -4.664000000    -1.016000000     3.911000000
O    -5.249000000    -2.221000000     3.733000000
C    -5.764000000    -2.678000000     2.535000000
C    -6.903000000    -2.142000000     2.053000000
H    -7.343000000    -1.406000000     2.721000000
C    -7.422000000    -2.562000000     0.845000000
H    -8.396000000    -2.159000000     0.581000000
C    -6.815000000    -3.566000000     0.099000000
H    -7.184000000    -3.881000000    -0.874000000
C    -5.644000000    -4.129000000     0.541000000
C    -5.100000000    -3.690000000     1.790000000
H    -4.121000000    -4.083000000     2.054000000
C    -1.494000000    -1.739000000     2.222000000
H    -2.529000000    -1.975000000     2.454000000
C    -1.221000000    -0.991000000     1.090000000
H    -1.988000000    -0.553000000     0.455000000
C     0.092000000    -0.768000000     0.786000000
C     0.427000000     0.127000000    -0.385000000
H     0.083000000    -0.326000000    -1.316000000
H    -0.231000000     0.996000000    -0.312000000
H     1.459000000     0.485000000    -0.352000000
C     1.108000000    -1.308000000     1.538000000
H     2.086000000    -1.043000000     1.146000000
C     0.857000000    -1.963000000     2.672000000
H     1.651000000    -2.301000000     3.332000000
C    -0.498000000    -2.221000000     2.986000000
C    -0.775000000    -3.100000000     4.182000000
O     0.133000000    -3.329000000     4.990000000
O    -1.902000000    -3.527000000     4.326000000
O    -4.089000000    -4.708000000     4.787000000
H    -4.726000000    -4.613000000     4.079000000
H    -3.331000000    -4.200000000     4.497000000
O    -2.278000000    -6.639000000     4.041000000
H    -2.804000000    -5.888000000     4.316000000
H    -1.878000000    -6.959000000     4.849000000
O     2.496000000    -5.906000000     7.436000000
H     2.740000000    -6.789000000     7.712000000
H     2.907000000    -5.331000000     8.082000000
O     0.298000000    -1.819000000     8.962000000
H    -0.326000000    -1.440000000     8.343000000
H     0.549000000    -2.655000000     8.567000000
O     4.705000000    -4.843000000     5.429000000
H     5.279000000    -4.267000000     4.924000000
H     3.965000000    -4.287000000     5.676000000
O    -4.023000000    -1.809000000     9.023000000
H    -3.473000000    -2.489000000     8.635000000
H    -4.221000000    -2.133000000     9.902000000
O     2.549000000    -8.412000000     3.992000000
H     1.944000000    -7.734000000     4.291000000
H     3.411000000    -7.998000000     4.032000000
O     0.210000000    -4.066000000     7.417000000
H     0.082000000    -3.679000000     6.551000000
H     0.918000000    -4.699000000     7.294000000
O     2.937000000    -1.115000000     8.226000000
H     3.423000000    -1.936000000     8.145000000
H     2.115000000    -1.365000000     8.648000000
O    -3.663000000    -7.826000000     1.571000000
H    -3.472000000    -7.706000000     2.501000000
H    -4.575000000    -8.117000000     1.549000000
O     4.535000000    -4.833000000     1.366000000
H     4.209000000    -5.504000000     0.767000000
H     3.983000000    -4.070000000     1.194000000
O    -2.785000000    -3.519000000     6.986000000
H    -2.051000000    -3.305000000     6.411000000
H    -3.492000000    -3.765000000     6.390000000
O     0.845000000    -6.171000000     4.977000000
H     1.563000000    -6.084000000     5.603000000
H     0.602000000    -5.270000000     4.765000000
O     1.510000000    -4.138000000     0.699000000
H     0.873000000    -4.648000000     1.197000000
H     1.297000000    -3.226000000     0.899000000
O    -0.494000000    -5.761000000     1.885000000
H    -0.489000000    -6.551000000     1.345000000
H    -1.150000000    -5.936000000     2.560000000
O     2.794000000    -2.826000000     5.824000000
H     2.828000000    -1.880000000     5.685000000
H     1.945000000    -3.090000000     5.469000000
O    -1.037000000    -7.951000000     6.281000000
H    -0.357000000    -8.577000000     6.531000000
H    -0.560000000    -7.146000000     6.082000000
O    -6.043000000    -4.315000000     7.007000000
H    -5.435000000    -4.513000000     6.294000000
H    -5.481000000    -4.178000000     7.770000000
O    -1.516000000    -5.152000000     9.136000000
H    -1.336000000    -6.090000000     9.198000000
H    -0.992000000    -4.856000000     8.392000000
