218
-1476.29474
C     5.240000000    -0.745000000    -0.545000000
H     5.354000000    -0.215000000     0.398000000
C     4.569000000    -0.178000000    -1.648000000
C     4.432000000    -0.946000000    -2.825000000
H     3.860000000    -0.465000000    -3.615000000
C     3.907000000     1.172000000    -1.527000000
O     4.677000000     2.008000000    -0.676000000
H     2.904000000     1.094000000    -1.082000000
O     3.801000000     1.843000000    -2.796000000
C     2.545000000     2.377000000    -3.059000000
C     1.639000000     1.599000000    -3.738000000
H     1.824000000     0.571000000    -4.037000000
C     0.306000000     2.118000000    -3.904000000
O    -0.656000000     1.266000000    -4.579000000
C    -0.069000000     3.323000000    -3.350000000
C    -1.444000000     3.937000000    -3.563000000
H    -1.420000000     5.026000000    -3.475000000
C    -2.519000000     3.356000000    -2.648000000
C    -2.717000000     4.072000000    -1.442000000
H    -2.255000000     5.027000000    -1.207000000
H    -1.616000000     3.786000000    -4.631000000
C     0.861000000     4.077000000    -2.608000000
H     0.674000000     5.086000000    -2.248000000
C     2.160000000     3.574000000    -2.476000000
C     3.131000000     4.333000000    -1.653000000
H     3.003000000     5.417000000    -1.628000000
H     4.115000000     4.263000000    -2.123000000
C     3.159000000     3.795000000    -0.196000000
C     2.212000000     4.384000000     0.632000000
H     1.501000000     5.149000000     0.330000000
C     4.014000000     2.733000000     0.279000000
C     3.743000000     2.195000000     1.448000000
H     4.196000000     1.232000000     1.671000000
C     2.886000000     2.815000000     2.352000000
O     2.653000000     2.173000000     3.533000000
C     1.462000000     1.394000000     3.810000000
C     1.755000000     0.047000000     4.441000000
C     0.801000000    -0.635000000     5.205000000
H    -0.119000000    -0.102000000     5.430000000
C     2.949000000    -0.597000000     4.140000000
H     3.650000000    -0.138000000     3.448000000
O     0.495000000     2.243000000     4.452000000
H     1.081000000     1.204000000     2.796000000
C     2.118000000     3.899000000     1.918000000
C     1.033000000     4.525000000     2.835000000
H     0.948000000     5.576000000     2.553000000
H     1.395000000     4.648000000     3.858000000
C    -0.281000000     3.799000000     2.788000000
C    -1.255000000     4.287000000     1.961000000
H    -1.069000000     5.027000000     1.187000000
C    -0.517000000     2.643000000     3.604000000
C    -1.757000000     2.068000000     3.637000000
H    -1.920000000     1.235000000     4.316000000
C    -2.725000000     2.503000000     2.678000000
O    -3.847000000     1.716000000     2.543000000
C    -3.858000000     0.936000000     1.323000000
C    -4.418000000    -0.455000000     1.562000000
C    -3.981000000    -1.202000000     2.644000000
H    -3.337000000    -0.668000000     3.338000000
C    -5.348000000    -1.074000000     0.691000000
H    -5.830000000    -0.666000000    -0.195000000
O    -4.692000000     1.596000000     0.362000000
H    -2.838000000     1.015000000     0.917000000
C    -2.505000000     3.648000000     1.866000000
C    -3.526000000     4.238000000     0.936000000
H    -3.466000000     5.312000000     0.747000000
H    -4.486000000     4.111000000     1.441000000
C    -3.458000000     3.474000000    -0.419000000
C    -4.085000000     2.268000000    -0.653000000
C    -3.871000000     1.580000000    -1.817000000
H    -4.454000000     0.673000000    -1.960000000
C    -3.137000000     2.059000000    -2.805000000
O    -2.842000000     1.241000000    -3.825000000
C    -1.585000000     0.588000000    -3.642000000
H    -1.122000000     0.827000000    -2.673000000
C    -1.688000000    -0.844000000    -4.023000000
C    -0.630000000    -1.502000000    -4.549000000
H     0.285000000    -0.957000000    -4.766000000
C    -2.903000000    -1.537000000    -3.683000000
H    -3.770000000    -1.059000000    -3.235000000
C    -2.926000000    -2.893000000    -3.987000000
O    -4.124000000    -3.580000000    -3.966000000
C    -1.843000000    -3.574000000    -4.617000000
H    -1.978000000    -4.619000000    -4.885000000
C    -0.675000000    -2.851000000    -4.848000000
O     0.387000000    -3.628000000    -5.451000000
C     1.607000000    -3.027000000    -5.744000000
C     2.614000000    -3.237000000    -4.787000000
H     2.504000000    -3.886000000    -3.922000000
C     1.814000000    -2.343000000    -6.939000000
H     0.984000000    -2.168000000    -7.618000000
C     3.051000000    -1.733000000    -7.179000000
H     3.160000000    -1.198000000    -8.119000000
C     4.141000000    -1.962000000    -6.315000000
H     5.135000000    -1.552000000    -6.470000000
C     3.913000000    -2.669000000    -5.106000000
O     4.896000000    -2.866000000    -4.159000000
C     4.951000000    -2.218000000    -2.970000000
C     5.612000000    -2.748000000    -1.835000000
H     6.133000000    -3.696000000    -1.730000000
C     5.789000000    -2.004000000    -0.695000000
O     6.467000000    -2.538000000     0.388000000
C     6.460000000    -2.148000000     1.680000000
C     5.379000000    -2.495000000     2.546000000
H     4.419000000    -2.892000000     2.226000000
C     7.537000000    -1.465000000     2.164000000
H     8.400000000    -1.185000000     1.565000000
C     7.613000000    -1.228000000     3.521000000
H     8.391000000    -0.597000000     3.942000000
C     6.583000000    -1.537000000     4.382000000
H     6.608000000    -1.045000000     5.351000000
C     5.422000000    -2.164000000     3.930000000
O     4.419000000    -2.524000000     4.762000000
C     3.180000000    -1.851000000     4.770000000
C     2.226000000    -2.489000000     5.554000000
H     2.520000000    -3.279000000     6.240000000
C     0.983000000    -1.905000000     5.733000000
O     0.010000000    -2.546000000     6.518000000
C    -1.292000000    -2.476000000     6.301000000
C    -1.885000000    -2.941000000     5.172000000
H    -1.209000000    -3.349000000     4.425000000
C    -2.059000000    -1.829000000     7.312000000
H    -1.558000000    -1.563000000     8.239000000
C    -3.405000000    -1.631000000     7.080000000
H    -4.056000000    -1.050000000     7.728000000
C    -4.034000000    -2.156000000     5.953000000
H    -5.070000000    -1.946000000     5.702000000
C    -3.291000000    -2.886000000     5.011000000
O    -3.925000000    -3.316000000     3.943000000
C    -4.291000000    -2.514000000     2.885000000
C    -5.192000000    -3.144000000     2.032000000
H    -5.508000000    -4.180000000     2.116000000
C    -5.743000000    -2.409000000     0.981000000
O    -6.582000000    -3.138000000     0.136000000
C    -6.489000000    -2.946000000    -1.232000000
C    -7.644000000    -2.635000000    -1.919000000
H    -8.606000000    -2.727000000    -1.422000000
C    -7.511000000    -2.272000000    -3.279000000
H    -8.241000000    -1.802000000    -3.932000000
C    -6.313000000    -2.545000000    -3.961000000
H    -6.319000000    -2.514000000    -5.047000000
C    -5.249000000    -3.116000000    -3.301000000
C    -5.295000000    -3.258000000    -1.952000000
H    -4.386000000    -3.523000000    -1.418000000
C    -1.297000000    -2.368000000     0.008000000
H    -2.209000000    -2.852000000    -0.332000000
C    -0.955000000    -1.111000000    -0.489000000
H    -1.601000000    -0.696000000    -1.258000000
C     0.220000000    -0.525000000    -0.064000000
C     0.490000000     0.903000000    -0.486000000
H    -0.397000000     1.497000000    -0.257000000
H     1.197000000     1.474000000     0.119000000
H     0.799000000     0.998000000    -1.529000000
C     0.936000000    -1.101000000     0.975000000
H     1.738000000    -0.535000000     1.441000000
C     0.524000000    -2.326000000     1.520000000
H     0.990000000    -2.656000000     2.445000000
C    -0.568000000    -3.008000000     1.039000000
C    -0.895000000    -4.350000000     1.599000000
O    -0.241000000    -4.809000000     2.513000000
O    -1.604000000    -5.026000000     0.937000000
O    -2.202000000    -6.129000000    -1.527000000
H    -1.829000000    -7.000000000    -1.389000000
H    -2.254000000    -5.749000000    -0.650000000
O    -0.631000000    -7.694000000     2.055000000
H    -0.623000000    -6.821000000     2.446000000
H    -1.559000000    -7.896000000     1.936000000
O    -4.324000000    -7.754000000    -2.489000000
H    -3.801000000    -7.030000000    -2.145000000
H    -5.211000000    -7.400000000    -2.551000000
O    -1.128000000    -8.602000000    -1.699000000
H    -0.617000000    -9.341000000    -1.370000000
H    -0.881000000    -8.531000000    -2.621000000
O     0.602000000    -5.644000000     7.187000000
H     0.027000000    -6.341000000     7.504000000
H     0.790000000    -5.883000000     6.279000000
O     3.610000000    -5.639000000    -1.039000000
H     2.949000000    -6.288000000    -0.796000000
H     3.106000000    -4.897000000    -1.373000000
O     1.758000000    -3.265000000    -1.505000000
H     1.865000000    -2.314000000    -1.518000000
H     0.826000000    -3.399000000    -1.333000000
O     4.795000000    -5.595000000     3.895000000
H     4.226000000    -5.127000000     3.284000000
H     4.520000000    -6.509000000     3.826000000
O    -4.120000000    -8.717000000     4.945000000
H    -3.958000000    -7.778000000     5.041000000
H    -5.032000000    -8.774000000     4.660000000
O     0.818000000    -6.368000000    -0.176000000
H     0.260000000    -6.544000000     0.582000000
H     0.222000000    -6.014000000    -0.836000000
O    -6.301000000    -6.676000000     1.917000000
H    -6.567000000    -6.595000000     2.833000000
H    -5.355000000    -6.820000000     1.954000000
O     3.812000000    -8.054000000     3.626000000
H     3.574000000    -8.234000000     4.535000000
H     3.249000000    -8.633000000     3.112000000
O     2.614000000    -4.892000000     2.136000000
H     1.661000000    -4.821000000     2.180000000
H     2.785000000    -5.299000000     1.286000000
O    -3.592000000    -6.445000000     2.056000000
H    -3.497000000    -6.465000000     3.008000000
H    -3.029000000    -5.725000000     1.774000000
O    -2.022000000    -6.072000000     4.412000000
H    -1.275000000    -6.489000000     4.840000000
H    -1.663000000    -5.272000000     4.029000000
O     1.797000000    -8.803000000     1.974000000
H     1.414000000    -9.679000000     2.011000000
H     1.043000000    -8.213000000     1.972000000
O     1.120000000    -6.202000000     4.659000000
H     1.863000000    -6.693000000     4.308000000
H     0.815000000    -5.671000000     3.923000000
O    -2.938000000    -9.181000000     1.101000000
H    -2.527000000    -9.076000000     0.243000000
H    -3.466000000    -8.390000000     1.212000000
O     2.068000000    -9.096000000    -0.869000000
H     1.603000000    -8.855000000    -0.068000000
H     2.955000000    -9.306000000    -0.577000000
