218
-1485.34697
C     4.640000000    -0.723000000    -0.886000000
H     4.727000000    -0.246000000     0.087000000
C     4.113000000     0.071000000    -1.930000000
C     4.025000000    -0.461000000    -3.217000000
H     3.626000000     0.135000000    -4.033000000
C     3.510000000     1.414000000    -1.733000000
O     4.266000000     2.297000000    -0.782000000
H     2.518000000     1.248000000    -1.290000000
O     3.280000000     2.160000000    -2.950000000
C     2.009000000     2.596000000    -3.088000000
C     1.138000000     1.856000000    -3.860000000
H     1.361000000     0.897000000    -4.320000000
C    -0.200000000     2.340000000    -4.077000000
O    -0.994000000     1.495000000    -4.731000000
C    -0.626000000     3.561000000    -3.440000000
C    -2.099000000     3.871000000    -3.353000000
H    -2.247000000     4.952000000    -3.403000000
C    -2.785000000     3.228000000    -2.210000000
C    -2.903000000     3.859000000    -1.002000000
H    -2.382000000     4.800000000    -0.841000000
H    -2.611000000     3.580000000    -4.272000000
C     0.330000000     4.269000000    -2.626000000
H     0.058000000     5.190000000    -2.117000000
C     1.660000000     3.829000000    -2.444000000
C     2.623000000     4.621000000    -1.588000000
H     2.289000000     5.660000000    -1.579000000
H     3.582000000     4.609000000    -2.111000000
C     2.690000000     4.070000000    -0.201000000
C     1.952000000     4.632000000     0.810000000
H     1.266000000     5.413000000     0.493000000
C     3.517000000     2.999000000     0.146000000
C     3.627000000     2.586000000     1.473000000
H     4.299000000     1.759000000     1.691000000
C     2.918000000     3.247000000     2.495000000
O     2.792000000     2.567000000     3.666000000
C     1.622000000     1.692000000     3.864000000
C     2.039000000     0.320000000     4.316000000
C     1.169000000    -0.565000000     4.919000000
H     0.115000000    -0.353000000     5.077000000
C     3.362000000    -0.137000000     4.101000000
H     4.174000000     0.523000000     3.806000000
O     0.692000000     2.419000000     4.747000000
H     1.097000000     1.524000000     2.913000000
C     2.006000000     4.221000000     2.120000000
C     1.050000000     4.787000000     3.105000000
H     0.841000000     5.837000000     2.892000000
H     1.519000000     4.819000000     4.091000000
C    -0.258000000     3.952000000     3.140000000
C    -1.324000000     4.319000000     2.363000000
H    -1.307000000     5.252000000     1.806000000
C    -0.478000000     2.954000000     4.132000000
C    -1.707000000     2.205000000     4.130000000
H    -1.886000000     1.323000000     4.739000000
C    -2.646000000     2.462000000     3.213000000
O    -3.590000000     1.440000000     3.052000000
C    -3.659000000     0.637000000     1.834000000
C    -3.923000000    -0.843000000     2.070000000
C    -3.771000000    -1.451000000     3.329000000
H    -3.559000000    -0.833000000     4.198000000
C    -4.424000000    -1.601000000     1.054000000
H    -4.688000000    -1.187000000     0.084000000
O    -4.648000000     1.168000000     0.881000000
H    -2.725000000     0.616000000     1.254000000
C    -2.524000000     3.542000000     2.306000000
C    -3.667000000     3.802000000     1.367000000
H    -3.829000000     4.877000000     1.254000000
H    -4.604000000     3.485000000     1.827000000
C    -3.457000000     3.126000000     0.068000000
C    -4.119000000     1.904000000    -0.176000000
C    -4.118000000     1.328000000    -1.503000000
H    -4.733000000     0.468000000    -1.753000000
C    -3.347000000     1.964000000    -2.451000000
O    -3.205000000     1.346000000    -3.609000000
C    -1.866000000     0.713000000    -3.922000000
H    -1.387000000     0.591000000    -2.939000000
C    -2.008000000    -0.619000000    -4.493000000
C    -0.847000000    -1.368000000    -4.896000000
H     0.129000000    -0.895000000    -4.965000000
C    -3.278000000    -1.304000000    -4.420000000
H    -4.190000000    -0.786000000    -4.135000000
C    -3.400000000    -2.690000000    -4.681000000
O    -4.625000000    -3.384000000    -4.537000000
C    -2.265000000    -3.376000000    -5.077000000
H    -2.296000000    -4.436000000    -5.318000000
C    -1.032000000    -2.703000000    -5.216000000
O     0.061000000    -3.447000000    -5.529000000
C     1.302000000    -2.921000000    -5.990000000
C     2.336000000    -2.771000000    -5.112000000
H     2.224000000    -2.985000000    -4.053000000
C     1.482000000    -2.635000000    -7.325000000
H     0.580000000    -2.658000000    -7.931000000
C     2.751000000    -2.243000000    -7.809000000
H     2.770000000    -2.000000000    -8.868000000
C     3.838000000    -2.181000000    -6.876000000
H     4.818000000    -1.909000000    -7.261000000
C     3.608000000    -2.434000000    -5.577000000
O     4.687000000    -2.285000000    -4.694000000
C     4.482000000    -1.811000000    -3.438000000
C     5.096000000    -2.510000000    -2.405000000
H     5.541000000    -3.467000000    -2.665000000
C     5.190000000    -1.970000000    -1.096000000
O     5.790000000    -2.673000000    -0.122000000
C     6.246000000    -2.241000000     1.090000000
C     5.415000000    -2.288000000     2.192000000
H     4.384000000    -2.632000000     2.174000000
C     7.583000000    -1.889000000     1.204000000
H     8.250000000    -2.054000000     0.362000000
C     8.100000000    -1.469000000     2.418000000
H     9.170000000    -1.296000000     2.502000000
C     7.299000000    -1.657000000     3.552000000
H     7.578000000    -1.549000000     4.597000000
C     5.958000000    -1.976000000     3.427000000
O     5.148000000    -1.837000000     4.481000000
C     3.799000000    -1.423000000     4.503000000
C     2.920000000    -2.294000000     5.150000000
H     3.248000000    -3.264000000     5.517000000
C     1.578000000    -1.834000000     5.304000000
O     0.705000000    -2.722000000     5.860000000
C    -0.653000000    -2.567000000     6.223000000
C    -1.592000000    -3.109000000     5.377000000
H    -1.227000000    -3.596000000     4.476000000
C    -1.095000000    -1.848000000     7.355000000
H    -0.395000000    -1.410000000     8.062000000
C    -2.430000000    -1.621000000     7.598000000
H    -2.784000000    -1.080000000     8.471000000
C    -3.349000000    -2.183000000     6.784000000
H    -4.408000000    -1.977000000     6.918000000
C    -2.915000000    -2.955000000     5.659000000
O    -3.872000000    -3.422000000     4.770000000
C    -4.084000000    -2.834000000     3.535000000
C    -4.280000000    -3.580000000     2.442000000
H    -4.277000000    -4.667000000     2.458000000
C    -4.529000000    -2.991000000     1.216000000
O    -5.001000000    -3.837000000     0.280000000
C    -5.546000000    -3.436000000    -0.948000000
C    -6.873000000    -3.048000000    -1.073000000
H    -7.406000000    -3.016000000    -0.126000000
C    -7.449000000    -2.689000000    -2.302000000
H    -8.453000000    -2.276000000    -2.346000000
C    -6.676000000    -2.756000000    -3.408000000
H    -7.119000000    -2.501000000    -4.367000000
C    -5.347000000    -3.194000000    -3.326000000
C    -4.805000000    -3.616000000    -2.114000000
H    -3.790000000    -3.947000000    -1.908000000
C    -1.314000000    -2.295000000    -0.063000000
H    -2.153000000    -2.869000000    -0.449000000
C    -1.128000000    -0.908000000    -0.285000000
H    -1.709000000    -0.362000000    -1.024000000
C    -0.128000000    -0.164000000     0.328000000
C     0.136000000     1.300000000     0.031000000
H    -0.641000000     1.894000000     0.515000000
H     1.084000000     1.717000000     0.377000000
H     0.043000000     1.425000000    -1.050000000
C     0.830000000    -0.779000000     1.142000000
H     1.665000000    -0.213000000     1.548000000
C     0.711000000    -2.160000000     1.397000000
H     1.493000000    -2.633000000     1.986000000
C    -0.362000000    -2.911000000     0.837000000
C    -0.506000000    -4.326000000     1.188000000
O     0.265000000    -4.972000000     1.874000000
O    -1.495000000    -4.902000000     0.740000000
O    -2.670000000    -7.196000000     0.672000000
H    -2.076000000    -7.561000000     0.016000000
H    -2.308000000    -6.332000000     0.867000000
O     1.344000000    -7.502000000     1.009000000
H     2.234000000    -7.421000000     0.666000000
H     1.041000000    -6.599000000     1.106000000
O     0.370000000    -7.554000000    -2.747000000
H     0.949000000    -7.423000000    -3.498000000
H    -0.087000000    -6.719000000    -2.648000000
O     3.559000000    -5.808000000    -2.352000000
H     2.921000000    -5.265000000    -1.890000000
H     3.145000000    -6.000000000    -3.194000000
O     5.164000000    -5.798000000     3.468000000
H     4.341000000    -5.658000000     2.998000000
H     5.253000000    -5.029000000     4.030000000
O    -2.850000000    -7.598000000     3.599000000
H    -2.038000000    -7.118000000     3.761000000
H    -2.944000000    -7.594000000     2.646000000
O     1.547000000    -4.128000000    -1.598000000
H     0.799000000    -4.715000000    -1.489000000
H     1.338000000    -3.369000000    -1.053000000
O     2.473000000    -5.083000000     3.543000000
H     2.236000000    -5.679000000     4.254000000
H     1.667000000    -4.980000000     3.038000000
O    -3.725000000    -6.179000000    -3.612000000
H    -4.095000000    -5.298000000    -3.664000000
H    -4.403000000    -6.700000000    -3.182000000
O    -1.209000000    -5.521000000    -2.203000000
H    -1.533000000    -5.277000000    -1.336000000
H    -1.999000000    -5.626000000    -2.734000000
O     1.648000000    -8.281000000     3.522000000
H     1.745000000    -7.937000000     2.634000000
H     1.538000000    -9.224000000     3.403000000
O     5.003000000    -6.004000000     0.278000000
H     4.409000000    -5.532000000    -0.306000000
H     5.668000000    -5.359000000     0.517000000
O    -5.292000000    -6.874000000     1.110000000
H    -5.386000000    -6.121000000     0.526000000
H    -4.419000000    -7.217000000     0.919000000
O    -3.396000000    -6.575000000     6.452000000
H    -4.200000000    -6.099000000     6.657000000
H    -3.432000000    -6.710000000     5.505000000
O     3.363000000    -8.330000000    -0.544000000
H     3.087000000    -8.759000000    -1.354000000
H     3.743000000    -7.500000000    -0.830000000
O    -0.192000000    -6.481000000     4.063000000
H     0.410000000    -7.179000000     3.805000000
H    -0.221000000    -5.897000000     3.305000000
O    -2.958000000   -10.417000000     0.683000000
H    -2.852000000    -9.558000000     0.275000000
H    -2.119000000   -10.586000000     1.110000000
O    -0.636000000    -8.823000000    -0.420000000
H     0.045000000    -8.447000000     0.138000000
H    -0.389000000    -8.563000000    -1.307000000
O     0.420000000    -7.495000000     6.845000000
H    -0.180000000    -6.853000000     6.464000000
H     0.755000000    -7.984000000     6.094000000
