218
-1424.28092
C     5.470000000    -1.434000000    -1.137000000
H     5.821000000    -0.862000000    -0.282000000
C     4.693000000    -0.861000000    -2.078000000
C     4.216000000    -1.628000000    -3.219000000
H     3.580000000    -1.225000000    -4.003000000
C     4.155000000     0.552000000    -1.913000000
O     4.847000000     1.371000000    -1.042000000
H     3.162000000     0.435000000    -1.455000000
O     3.866000000     1.241000000    -3.197000000
C     2.753000000     2.045000000    -3.380000000
C     1.715000000     1.329000000    -4.001000000
H     2.013000000     0.382000000    -4.442000000
C     0.540000000     1.952000000    -4.177000000
O    -0.480000000     1.190000000    -4.661000000
C     0.362000000     3.312000000    -3.739000000
C    -1.009000000     4.053000000    -3.958000000
H    -0.765000000     5.094000000    -4.177000000
C    -1.926000000     3.695000000    -2.756000000
C    -1.946000000     4.426000000    -1.559000000
H    -1.319000000     5.312000000    -1.489000000
H    -1.483000000     3.673000000    -4.865000000
C     1.430000000     3.915000000    -3.050000000
H     1.273000000     4.903000000    -2.625000000
C     2.632000000     3.312000000    -2.851000000
C     3.733000000     3.965000000    -1.966000000
H     3.615000000     5.051000000    -1.981000000
H     4.713000000     3.699000000    -2.369000000
C     3.707000000     3.479000000    -0.560000000
C     3.023000000     4.177000000     0.434000000
H     2.610000000     5.158000000     0.215000000
C     4.155000000     2.200000000    -0.202000000
C     3.895000000     1.658000000     1.054000000
H     4.249000000     0.650000000     1.254000000
C     3.268000000     2.473000000     1.969000000
O     2.999000000     1.834000000     3.140000000
C     1.698000000     1.410000000     3.387000000
C     1.727000000     0.091000000     4.043000000
C     0.935000000    -0.283000000     5.142000000
H     0.164000000     0.360000000     5.559000000
C     2.523000000    -0.947000000     3.526000000
H     3.069000000    -0.732000000     2.610000000
O     0.981000000     2.386000000     4.197000000
H     1.179000000     1.144000000     2.454000000
C     2.879000000     3.779000000     1.732000000
C     1.956000000     4.621000000     2.699000000
H     1.785000000     5.671000000     2.453000000
H     2.319000000     4.670000000     3.728000000
C     0.502000000     4.178000000     2.808000000
C    -0.457000000     4.815000000     2.011000000
H    -0.172000000     5.653000000     1.379000000
C     0.054000000     3.147000000     3.571000000
C    -1.231000000     2.669000000     3.604000000
H    -1.447000000     1.794000000     4.213000000
C    -2.139000000     3.227000000     2.723000000
O    -3.345000000     2.581000000     2.578000000
C    -3.537000000     1.621000000     1.477000000
C    -4.319000000     0.368000000     1.969000000
C    -3.886000000    -0.373000000     3.085000000
H    -3.125000000     0.116000000     3.688000000
C    -5.181000000    -0.388000000     1.095000000
H    -5.470000000     0.036000000     0.137000000
O    -4.239000000     2.298000000     0.399000000
H    -2.534000000     1.306000000     1.152000000
C    -1.726000000     4.284000000     1.866000000
C    -2.687000000     4.880000000     0.776000000
H    -2.531000000     5.948000000     0.610000000
H    -3.701000000     4.727000000     1.153000000
C    -2.774000000     4.061000000    -0.534000000
C    -3.580000000     2.898000000    -0.614000000
C    -3.534000000     2.170000000    -1.766000000
H    -4.069000000     1.223000000    -1.761000000
C    -2.796000000     2.571000000    -2.873000000
O    -2.603000000     1.662000000    -3.840000000
C    -1.538000000     0.753000000    -3.686000000
H    -1.105000000     0.857000000    -2.680000000
C    -1.991000000    -0.673000000    -3.798000000
C    -1.022000000    -1.709000000    -3.935000000
H     0.004000000    -1.351000000    -3.959000000
C    -3.272000000    -1.048000000    -3.902000000
H    -4.051000000    -0.294000000    -3.835000000
C    -3.634000000    -2.388000000    -3.962000000
O    -4.970000000    -2.721000000    -3.973000000
C    -2.679000000    -3.388000000    -4.040000000
H    -3.034000000    -4.415000000    -4.008000000
C    -1.355000000    -3.057000000    -4.072000000
O    -0.433000000    -4.077000000    -3.992000000
C     0.678000000    -3.956000000    -4.770000000
C     1.916000000    -3.760000000    -4.260000000
H     1.934000000    -3.563000000    -3.191000000
C     0.486000000    -4.365000000    -6.074000000
H    -0.491000000    -4.681000000    -6.432000000
C     1.594000000    -4.483000000    -6.918000000
H     1.417000000    -4.848000000    -7.927000000
C     2.899000000    -4.081000000    -6.473000000
H     3.721000000    -3.972000000    -7.175000000
C     3.036000000    -3.684000000    -5.104000000
O     4.368000000    -3.562000000    -4.616000000
C     4.694000000    -2.928000000    -3.409000000
C     5.407000000    -3.523000000    -2.355000000
H     5.906000000    -4.486000000    -2.435000000
C     5.796000000    -2.784000000    -1.239000000
O     6.308000000    -3.460000000    -0.140000000
C     6.175000000    -2.993000000     1.160000000
C     4.974000000    -3.287000000     1.841000000
H     4.146000000    -3.786000000     1.344000000
C     7.137000000    -2.264000000     1.898000000
H     8.042000000    -1.975000000     1.370000000
C     6.941000000    -1.848000000     3.241000000
H     7.662000000    -1.193000000     3.724000000
C     5.695000000    -2.151000000     3.806000000
H     5.468000000    -1.888000000     4.836000000
C     4.708000000    -2.841000000     3.102000000
O     3.498000000    -3.143000000     3.694000000
C     2.529000000    -2.220000000     4.038000000
C     1.774000000    -2.544000000     5.125000000
H     1.843000000    -3.501000000     5.636000000
C     1.013000000    -1.585000000     5.727000000
O     0.218000000    -1.965000000     6.786000000
C    -1.124000000    -1.772000000     6.796000000
C    -1.837000000    -1.847000000     5.590000000
H    -1.396000000    -2.156000000     4.645000000
C    -1.840000000    -1.504000000     7.977000000
H    -1.300000000    -1.464000000     8.920000000
C    -3.244000000    -1.275000000     7.883000000
H    -3.833000000    -1.284000000     8.796000000
C    -3.947000000    -1.383000000     6.680000000
H    -5.026000000    -1.261000000     6.646000000
C    -3.181000000    -1.695000000     5.582000000
O    -3.843000000    -2.216000000     4.504000000
C    -4.324000000    -1.598000000     3.431000000
C    -5.166000000    -2.340000000     2.577000000
H    -5.388000000    -3.403000000     2.629000000
C    -5.551000000    -1.655000000     1.398000000
O    -6.481000000    -2.320000000     0.654000000
C    -6.632000000    -2.052000000    -0.633000000
C    -7.653000000    -1.296000000    -1.138000000
H    -8.353000000    -0.858000000    -0.432000000
C    -7.743000000    -0.946000000    -2.470000000
H    -8.618000000    -0.403000000    -2.817000000
C    -6.782000000    -1.388000000    -3.349000000
H    -6.892000000    -1.096000000    -4.390000000
C    -5.819000000    -2.296000000    -2.952000000
C    -5.769000000    -2.613000000    -1.603000000
H    -4.932000000    -3.226000000    -1.278000000
C    -1.829000000    -1.435000000    -0.098000000
H    -2.844000000    -1.803000000    -0.223000000
C    -1.426000000    -0.157000000    -0.377000000
H    -2.101000000     0.478000000    -0.945000000
C    -0.139000000     0.262000000    -0.083000000
C     0.330000000     1.663000000    -0.376000000
H    -0.465000000     2.411000000    -0.337000000
H     0.978000000     1.968000000     0.449000000
H     0.943000000     1.606000000    -1.278000000
C     0.733000000    -0.616000000     0.547000000
H     1.755000000    -0.305000000     0.749000000
C     0.343000000    -1.963000000     0.694000000
H     0.994000000    -2.694000000     1.165000000
C    -0.891000000    -2.412000000     0.345000000
C    -1.317000000    -3.864000000     0.648000000
O    -0.516000000    -4.675000000     1.105000000
O    -2.461000000    -4.200000000     0.591000000
O    -0.441000000   -10.077000000     3.199000000
H    -0.994000000    -9.940000000     2.431000000
H     0.186000000   -10.747000000     2.927000000
O    -5.055000000    -9.261000000     0.124000000
H    -5.178000000    -8.748000000    -0.675000000
H    -5.413000000    -8.710000000     0.820000000
O     1.105000000    -6.187000000    -0.940000000
H     0.662000000    -5.426000000    -0.564000000
H     0.547000000    -6.452000000    -1.671000000
O    -1.250000000    -7.694000000     6.227000000
H    -0.809000000    -7.620000000     5.381000000
H    -1.065000000    -6.865000000     6.668000000
O     2.627000000    -8.853000000     0.734000000
H     3.194000000    -8.913000000     1.502000000
H     2.072000000    -8.092000000     0.905000000
O    -3.619000000    -9.101000000     2.873000000
H    -4.520000000    -8.794000000     2.766000000
H    -3.403000000    -8.894000000     3.782000000
O     0.036000000    -7.151000000    -3.364000000
H    -0.730000000    -7.707000000    -3.506000000
H    -0.168000000    -6.339000000    -3.828000000
O     1.771000000    -5.611000000     2.538000000
H     2.699000000    -5.776000000     2.369000000
H     1.429000000    -5.296000000     1.701000000
O    -4.871000000    -7.598000000    -2.202000000
H    -4.215000000    -7.063000000    -1.757000000
H    -4.933000000    -7.220000000    -3.080000000
O     3.828000000    -6.794000000    -2.246000000
H     4.605000000    -6.997000000    -1.725000000
H     3.210000000    -6.417000000    -1.619000000
O    -1.040000000    -4.996000000     7.158000000
H    -0.483000000    -4.834000000     7.919000000
H    -0.844000000    -4.275000000     6.560000000
O    -4.159000000    -5.308000000     5.033000000
H    -4.044000000    -4.360000000     5.091000000
H    -3.970000000    -5.517000000     4.118000000
O    -1.409000000    -7.024000000     0.307000000
H    -1.282000000    -6.139000000     0.649000000
H    -0.691000000    -7.532000000     0.685000000
O    -0.652000000    -5.275000000     3.799000000
H     0.297000000    -5.273000000     3.674000000
H    -1.000000000    -4.897000000     2.991000000
O    -4.036000000    -5.639000000     2.195000000
H    -3.694000000    -4.955000000     1.619000000
H    -3.469000000    -6.393000000     2.035000000
O    -1.958000000    -9.770000000     0.968000000
H    -2.730000000    -9.637000000     1.518000000
H    -1.842000000    -8.936000000     0.513000000
O    -2.963000000    -5.609000000    -1.605000000
H    -2.922000000    -5.022000000    -0.850000000
H    -2.300000000    -6.276000000    -1.426000000
O    -7.061000000    -5.404000000     2.013000000
H    -7.240000000    -4.893000000     2.803000000
H    -6.106000000    -5.419000000     1.949000000
O     4.367000000    -6.353000000     2.004000000
H     5.319000000    -6.257000000     1.971000000
H     4.219000000    -7.058000000     2.634000000
