218
-1447.09924
C     5.025000000    -0.845000000    -1.459000000
H     5.048000000    -0.432000000    -0.454000000
C     4.333000000    -0.249000000    -2.479000000
C     4.235000000    -0.871000000    -3.725000000
H     3.734000000    -0.430000000    -4.583000000
C     3.625000000     1.093000000    -2.223000000
O     4.255000000     1.892000000    -1.257000000
H     2.643000000     0.880000000    -1.776000000
O     3.340000000     1.847000000    -3.448000000
C     2.126000000     2.481000000    -3.425000000
C     1.073000000     1.833000000    -4.100000000
H     1.275000000     0.879000000    -4.580000000
C    -0.239000000     2.316000000    -4.089000000
O    -1.215000000     1.571000000    -4.631000000
C    -0.458000000     3.526000000    -3.409000000
C    -1.806000000     4.129000000    -3.330000000
H    -1.653000000     5.210000000    -3.302000000
C    -2.648000000     3.596000000    -2.156000000
C    -2.626000000     4.299000000    -0.913000000
H    -2.027000000     5.203000000    -0.838000000
H    -2.316000000     4.041000000    -4.292000000
C     0.567000000     4.120000000    -2.630000000
H     0.287000000     4.981000000    -2.028000000
C     1.837000000     3.617000000    -2.650000000
C     2.974000000     4.367000000    -1.830000000
H     2.728000000     5.430000000    -1.876000000
H     3.948000000     4.278000000    -2.315000000
C     3.043000000     3.802000000    -0.394000000
C     2.399000000     4.493000000     0.637000000
H     1.861000000     5.428000000     0.502000000
C     3.702000000     2.601000000    -0.227000000
C     3.687000000     2.026000000     1.008000000
H     4.250000000     1.103000000     1.121000000
C     3.106000000     2.703000000     2.082000000
O     3.176000000     1.986000000     3.243000000
C     1.990000000     1.262000000     3.610000000
C     2.317000000    -0.070000000     4.335000000
C     1.394000000    -0.745000000     5.155000000
H     0.471000000    -0.235000000     5.418000000
C     3.430000000    -0.730000000     3.897000000
H     4.205000000    -0.282000000     3.280000000
O     1.185000000     2.155000000     4.390000000
H     1.417000000     0.873000000     2.755000000
C     2.444000000     3.922000000     1.923000000
C     1.662000000     4.626000000     3.021000000
H     1.417000000     5.682000000     2.884000000
H     2.190000000     4.426000000     3.956000000
C     0.238000000     3.983000000     3.132000000
C    -0.872000000     4.581000000     2.437000000
H    -0.761000000     5.548000000     1.954000000
C     0.095000000     2.791000000     3.753000000
C    -1.149000000     2.114000000     3.638000000
H    -1.299000000     1.192000000     4.193000000
C    -2.207000000     2.633000000     2.958000000
O    -3.360000000     1.906000000     2.947000000
C    -3.690000000     1.126000000     1.778000000
C    -4.217000000    -0.239000000     2.134000000
C    -3.636000000    -0.922000000     3.187000000
H    -2.902000000    -0.361000000     3.759000000
C    -5.038000000    -0.930000000     1.233000000
H    -5.405000000    -0.455000000     0.327000000
O    -4.594000000     1.901000000     1.003000000
H    -2.789000000     0.919000000     1.181000000
C    -2.038000000     3.857000000     2.309000000
C    -3.191000000     4.446000000     1.484000000
H    -3.010000000     5.520000000     1.405000000
H    -4.107000000     4.325000000     2.067000000
C    -3.302000000     3.780000000     0.135000000
C    -4.085000000     2.620000000     0.009000000
C    -4.163000000     1.899000000    -1.163000000
H    -4.728000000     0.975000000    -1.262000000
C    -3.396000000     2.421000000    -2.289000000
O    -3.267000000     1.651000000    -3.414000000
C    -2.088000000     0.886000000    -3.704000000
H    -1.563000000     0.756000000    -2.746000000
C    -2.220000000    -0.599000000    -4.046000000
C    -1.100000000    -1.389000000    -4.209000000
H    -0.120000000    -0.919000000    -4.181000000
C    -3.498000000    -1.217000000    -3.995000000
H    -4.358000000    -0.626000000    -3.690000000
C    -3.653000000    -2.595000000    -4.100000000
O    -4.912000000    -3.224000000    -4.058000000
C    -2.481000000    -3.425000000    -4.234000000
H    -2.606000000    -4.500000000    -4.340000000
C    -1.237000000    -2.824000000    -4.428000000
O    -0.066000000    -3.566000000    -4.315000000
C     0.985000000    -3.475000000    -5.183000000
C     2.232000000    -3.296000000    -4.636000000
H     2.400000000    -3.329000000    -3.563000000
C     0.710000000    -3.428000000    -6.556000000
H    -0.331000000    -3.530000000    -6.851000000
C     1.844000000    -3.479000000    -7.396000000
H     1.713000000    -3.600000000    -8.468000000
C     3.164000000    -3.287000000    -6.849000000
H     4.060000000    -3.196000000    -7.458000000
C     3.314000000    -3.192000000    -5.469000000
O     4.581000000    -2.891000000    -5.012000000
C     4.752000000    -2.165000000    -3.877000000
C     5.372000000    -2.820000000    -2.846000000
H     5.692000000    -3.856000000    -2.918000000
C     5.497000000    -2.167000000    -1.649000000
O     6.097000000    -2.955000000    -0.634000000
C     6.392000000    -2.605000000     0.614000000
C     5.493000000    -2.918000000     1.565000000
H     4.739000000    -3.670000000     1.351000000
C     7.403000000    -1.669000000     0.886000000
H     7.919000000    -1.221000000     0.041000000
C     7.602000000    -1.171000000     2.146000000
H     8.414000000    -0.463000000     2.295000000
C     6.738000000    -1.518000000     3.156000000
H     6.940000000    -1.160000000     4.163000000
C     5.651000000    -2.395000000     2.876000000
O     4.741000000    -2.755000000     3.873000000
C     3.644000000    -2.024000000     4.347000000
C     2.743000000    -2.670000000     5.161000000
H     3.013000000    -3.670000000     5.490000000
C     1.596000000    -2.031000000     5.611000000
O     0.824000000    -2.759000000     6.482000000
C    -0.532000000    -2.514000000     6.594000000
C    -1.329000000    -2.737000000     5.466000000
H    -0.951000000    -3.193000000     4.554000000
C    -1.008000000    -1.949000000     7.775000000
H    -0.272000000    -1.867000000     8.570000000
C    -2.317000000    -1.513000000     7.839000000
H    -2.671000000    -0.970000000     8.712000000
C    -3.188000000    -1.843000000     6.844000000
H    -4.221000000    -1.511000000     6.906000000
C    -2.720000000    -2.517000000     5.663000000
O    -3.615000000    -2.920000000     4.663000000
C    -4.041000000    -2.221000000     3.519000000
C    -4.762000000    -2.952000000     2.591000000
H    -5.160000000    -3.922000000     2.876000000
C    -5.252000000    -2.291000000     1.455000000
O    -6.015000000    -3.149000000     0.600000000
C    -6.335000000    -2.858000000    -0.738000000
C    -7.432000000    -2.035000000    -0.979000000
H    -8.055000000    -1.694000000    -0.157000000
C    -7.783000000    -1.864000000    -2.324000000
H    -8.643000000    -1.277000000    -2.637000000
C    -7.006000000    -2.315000000    -3.330000000
H    -7.295000000    -2.113000000    -4.358000000
C    -5.800000000    -2.936000000    -3.030000000
C    -5.572000000    -3.353000000    -1.785000000
H    -4.666000000    -3.920000000    -1.589000000
C    -1.701000000    -2.363000000    -0.282000000
H    -2.655000000    -2.851000000    -0.463000000
C    -1.595000000    -1.056000000    -0.410000000
H    -2.454000000    -0.447000000    -0.681000000
C    -0.374000000    -0.386000000    -0.316000000
C    -0.217000000     0.996000000    -0.558000000
H     0.516000000     1.154000000    -1.352000000
H    -1.147000000     1.551000000    -0.697000000
H     0.296000000     1.360000000     0.335000000
C     0.788000000    -1.171000000    -0.080000000
H     1.762000000    -0.690000000    -0.121000000
C     0.604000000    -2.534000000     0.246000000
H     1.441000000    -3.120000000     0.619000000
C    -0.610000000    -3.141000000     0.105000000
C    -0.817000000    -4.642000000     0.156000000
O     0.097000000    -5.373000000    -0.104000000
O    -1.899000000    -5.098000000     0.067000000
O    -5.611000000    -5.999000000     1.051000000
H    -4.696000000    -5.986000000     1.330000000
H    -5.745000000    -5.149000000     0.630000000
O     2.606000000    -4.816000000    -1.480000000
H     2.100000000    -4.185000000    -0.968000000
H     2.667000000    -5.587000000    -0.915000000
O     0.817000000    -5.284000000     4.441000000
H     1.137000000    -5.452000000     3.555000000
H     1.518000000    -5.598000000     5.012000000
O    -1.888000000    -9.188000000     5.016000000
H    -1.290000000    -8.784000000     4.388000000
H    -1.416000000    -9.956000000     5.337000000
O     1.057000000    -8.513000000    -1.184000000
H     1.720000000    -9.061000000    -0.763000000
H     0.401000000    -8.365000000    -0.503000000
O    -1.633000000   -10.757000000    -0.204000000
H    -2.516000000   -10.684000000    -0.566000000
H    -1.297000000    -9.861000000    -0.210000000
O     1.467000000    -6.771000000    -3.306000000
H     1.271000000    -7.394000000    -2.607000000
H     1.970000000    -6.079000000    -2.876000000
O     1.822000000    -5.634000000     1.866000000
H     1.165000000    -5.481000000     1.186000000
H     2.393000000    -6.309000000     1.500000000
O    -4.596000000    -6.129000000    -5.010000000
H    -4.774000000    -6.901000000    -5.547000000
H    -4.341000000    -6.484000000    -4.158000000
O    -1.468000000    -7.922000000     0.443000000
H    -1.228000000    -6.996000000     0.460000000
H    -2.134000000    -8.010000000     1.125000000
O     0.005000000    -8.096000000     3.438000000
H     0.864000000    -8.037000000     3.856000000
H     0.186000000    -8.452000000     2.568000000
O    -3.255000000    -5.930000000     2.395000000
H    -2.773000000    -5.386000000     1.773000000
H    -2.729000000    -5.903000000     3.195000000
O    -2.253000000    -8.378000000    -4.029000000
H    -1.655000000    -9.110000000    -3.876000000
H    -1.895000000    -7.662000000    -3.504000000
O     3.766000000    -7.147000000     0.228000000
H     4.616000000    -7.474000000     0.525000000
H     3.242000000    -7.936000000     0.086000000
O    -0.094000000   -10.146000000    -3.107000000
H     0.551000000   -10.847000000    -3.017000000
H     0.139000000    -9.518000000    -2.423000000
O    -3.547000000    -9.145000000     2.619000000
H    -3.076000000    -8.971000000     3.434000000
H    -4.104000000    -8.377000000     2.496000000
O    -0.955000000    -6.392000000    -2.434000000
H    -0.791000000    -6.017000000    -1.569000000
H    -0.183000000    -6.156000000    -2.948000000
O    -1.926000000    -6.158000000     4.854000000
H    -1.024000000    -5.930000000     4.631000000
H    -1.913000000    -7.109000000     4.967000000
O    -3.884000000    -6.794000000    -1.834000000
H    -3.029000000    -7.031000000    -1.476000000
H    -3.857000000    -5.839000000    -1.907000000
