218
-1479.85315
C     4.927000000    -0.940000000     0.178000000
H     4.737000000    -0.377000000     1.088000000
C     4.700000000    -0.272000000    -1.034000000
C     4.781000000    -0.963000000    -2.199000000
H     4.546000000    -0.454000000    -3.130000000
C     4.130000000     1.119000000    -1.016000000
O     4.736000000     2.022000000    -0.008000000
H     3.064000000     1.136000000    -0.748000000
O     4.184000000     1.702000000    -2.338000000
C     2.963000000     2.295000000    -2.795000000
C     2.141000000     1.617000000    -3.666000000
H     2.522000000     0.708000000    -4.123000000
C     0.875000000     2.079000000    -3.971000000
O     0.068000000     1.239000000    -4.785000000
C     0.474000000     3.334000000    -3.504000000
C    -0.944000000     3.842000000    -3.952000000
H    -1.030000000     4.929000000    -4.000000000
C    -2.052000000     3.305000000    -3.056000000
C    -2.414000000     4.085000000    -1.936000000
H    -1.947000000     5.060000000    -1.827000000
H    -1.145000000     3.602000000    -4.999000000
C     1.337000000     4.073000000    -2.752000000
H     1.059000000     5.061000000    -2.395000000
C     2.569000000     3.537000000    -2.361000000
C     3.397000000     4.313000000    -1.384000000
H     3.324000000     5.389000000    -1.559000000
H     4.406000000     4.028000000    -1.691000000
C     3.244000000     3.881000000     0.104000000
C     2.355000000     4.588000000     0.895000000
H     1.931000000     5.529000000     0.554000000
C     3.835000000     2.784000000     0.674000000
C     3.520000000     2.362000000     1.934000000
H     3.961000000     1.482000000     2.395000000
C     2.454000000     2.974000000     2.613000000
O     2.058000000     2.397000000     3.812000000
C     0.862000000     1.587000000     3.810000000
C     1.124000000     0.270000000     4.559000000
C     0.035000000    -0.570000000     4.858000000
H    -0.977000000    -0.259000000     4.611000000
C     2.388000000    -0.225000000     4.756000000
H     3.316000000     0.293000000     4.528000000
O    -0.172000000     2.423000000     4.333000000
H     0.530000000     1.353000000     2.788000000
C     1.816000000     4.038000000     2.029000000
C     0.699000000     4.688000000     2.776000000
H     0.619000000     5.694000000     2.360000000
H     0.941000000     4.765000000     3.838000000
C    -0.585000000     3.859000000     2.536000000
C    -1.419000000     4.308000000     1.560000000
H    -1.080000000     5.162000000     0.979000000
C    -1.045000000     2.874000000     3.375000000
C    -2.273000000     2.272000000     3.243000000
H    -2.608000000     1.520000000     3.953000000
C    -3.120000000     2.721000000     2.255000000
O    -4.177000000     1.890000000     2.033000000
C    -4.037000000     1.000000000     0.885000000
C    -4.772000000    -0.286000000     1.256000000
C    -4.843000000    -0.703000000     2.567000000
H    -4.493000000    -0.034000000     3.350000000
C    -5.222000000    -1.165000000     0.257000000
H    -5.248000000    -0.890000000    -0.794000000
O    -4.670000000     1.704000000    -0.245000000
H    -3.020000000     0.718000000     0.574000000
C    -2.727000000     3.754000000     1.353000000
C    -3.563000000     4.274000000     0.316000000
H    -3.359000000     5.347000000     0.343000000
H    -4.556000000     4.282000000     0.771000000
C    -3.327000000     3.595000000    -0.980000000
C    -3.894000000     2.311000000    -1.240000000
C    -3.593000000     1.613000000    -2.392000000
H    -4.087000000     0.653000000    -2.518000000
C    -2.538000000     2.034000000    -3.146000000
O    -2.171000000     1.272000000    -4.221000000
C    -0.946000000     0.524000000    -4.100000000
H    -0.607000000     0.390000000    -3.061000000
C    -1.101000000    -0.927000000    -4.555000000
C     0.034000000    -1.584000000    -5.054000000
H     0.906000000    -0.999000000    -5.334000000
C    -2.243000000    -1.665000000    -4.302000000
H    -3.112000000    -1.249000000    -3.800000000
C    -2.259000000    -3.034000000    -4.424000000
O    -3.287000000    -3.843000000    -3.919000000
C    -1.204000000    -3.664000000    -5.049000000
H    -1.089000000    -4.742000000    -4.971000000
C    -0.062000000    -2.959000000    -5.312000000
O     1.000000000    -3.550000000    -5.971000000
C     2.282000000    -3.139000000    -5.862000000
C     2.996000000    -3.297000000    -4.642000000
H     2.542000000    -3.736000000    -3.757000000
C     2.890000000    -2.437000000    -6.933000000
H     2.379000000    -2.215000000    -7.866000000
C     4.124000000    -1.866000000    -6.754000000
H     4.520000000    -1.298000000    -7.592000000
C     4.848000000    -2.071000000    -5.572000000
H     5.901000000    -1.802000000    -5.553000000
C     4.279000000    -2.812000000    -4.520000000
O     5.004000000    -3.134000000    -3.403000000
C     5.109000000    -2.338000000    -2.223000000
C     5.529000000    -2.961000000    -1.056000000
H     5.671000000    -4.037000000    -1.001000000
C     5.417000000    -2.296000000     0.167000000
O     5.796000000    -2.971000000     1.300000000
C     5.897000000    -2.386000000     2.481000000
C     4.829000000    -2.416000000     3.320000000
H     3.914000000    -2.848000000     2.925000000
C     7.087000000    -1.756000000     2.818000000
H     7.815000000    -1.532000000     2.042000000
C     7.158000000    -1.201000000     4.083000000
H     8.012000000    -0.630000000     4.438000000
C     6.126000000    -1.281000000     4.989000000
H     6.197000000    -0.840000000     5.980000000
C     4.897000000    -1.829000000     4.632000000
O     3.895000000    -1.892000000     5.559000000
C     2.568000000    -1.484000000     5.333000000
C     1.484000000    -2.297000000     5.596000000
H     1.520000000    -3.274000000     6.073000000
C     0.182000000    -1.826000000     5.383000000
O    -0.821000000    -2.710000000     5.807000000
C    -2.177000000    -2.459000000     6.008000000
C    -3.071000000    -2.447000000     4.936000000
H    -2.727000000    -2.512000000     3.907000000
C    -2.595000000    -2.473000000     7.277000000
H    -1.846000000    -2.529000000     8.064000000
C    -3.986000000    -2.423000000     7.557000000
H    -4.272000000    -2.395000000     8.605000000
C    -4.909000000    -2.351000000     6.472000000
H    -5.984000000    -2.268000000     6.606000000
C    -4.453000000    -2.302000000     5.186000000
O    -5.354000000    -2.457000000     4.140000000
C    -5.284000000    -1.982000000     2.856000000
C    -5.693000000    -2.879000000     1.827000000
H    -6.128000000    -3.849000000     2.055000000
C    -5.731000000    -2.429000000     0.565000000
O    -6.414000000    -3.145000000    -0.409000000
C    -6.053000000    -3.068000000    -1.746000000
C    -6.972000000    -2.524000000    -2.608000000
H    -7.913000000    -2.163000000    -2.202000000
C    -6.666000000    -2.473000000    -3.966000000
H    -7.278000000    -1.971000000    -4.711000000
C    -5.412000000    -2.852000000    -4.398000000
H    -5.264000000    -2.661000000    -5.458000000
C    -4.477000000    -3.392000000    -3.547000000
C    -4.811000000    -3.575000000    -2.189000000
H    -4.135000000    -4.063000000    -1.492000000
C    -1.781000000    -2.353000000     0.695000000
H    -2.683000000    -2.788000000     0.272000000
C    -1.312000000    -1.176000000     0.150000000
H    -1.916000000    -0.695000000    -0.616000000
C    -0.080000000    -0.605000000     0.421000000
C     0.253000000     0.631000000    -0.288000000
H     1.015000000     1.164000000     0.284000000
H     0.543000000     0.437000000    -1.323000000
H    -0.596000000     1.315000000    -0.340000000
C     0.800000000    -1.247000000     1.276000000
H     1.818000000    -0.880000000     1.179000000
C     0.382000000    -2.395000000     1.949000000
H     1.123000000    -2.851000000     2.601000000
C    -0.932000000    -2.944000000     1.628000000
C    -1.430000000    -4.277000000     2.288000000
O    -0.587000000    -4.946000000     2.823000000
O    -2.578000000    -4.689000000     2.187000000
O     1.927000000    -5.611000000     2.161000000
H     1.020000000    -5.345000000     2.005000000
H     1.995000000    -5.683000000     3.113000000
O    -6.310000000    -6.430000000     2.761000000
H    -5.715000000    -6.309000000     2.021000000
H    -6.556000000    -7.354000000     2.722000000
O    -6.493000000    -6.123000000     5.827000000
H    -7.010000000    -6.928000000     5.859000000
H    -6.138000000    -6.102000000     4.938000000
O     3.863000000    -5.858000000     0.366000000
H     3.225000000    -5.819000000     1.079000000
H     3.335000000    -5.797000000    -0.430000000
O    -5.007000000    -8.734000000     1.446000000
H    -4.534000000    -8.050000000     0.972000000
H    -4.469000000    -8.905000000     2.220000000
O    -2.434000000    -6.025000000    -1.522000000
H    -2.645000000    -6.447000000    -2.355000000
H    -1.730000000    -6.559000000    -1.154000000
O    -4.400000000    -5.925000000     7.306000000
H    -3.649000000    -5.878000000     6.714000000
H    -5.156000000    -6.015000000     6.726000000
O    -0.421000000    -5.487000000     5.535000000
H    -0.727000000    -5.829000000     4.694000000
H    -0.682000000    -4.566000000     5.528000000
O     0.780000000    -4.969000000     8.075000000
H     1.716000000    -4.818000000     7.943000000
H     0.490000000    -5.399000000     7.271000000
O    -1.301000000    -8.015000000    -0.100000000
H    -0.939000000    -7.828000000     0.766000000
H    -1.705000000    -8.878000000    -0.010000000
O    -0.631000000    -3.872000000    -1.647000000
H    -0.640000000    -3.121000000    -1.053000000
H    -1.508000000    -4.247000000    -1.573000000
O    -3.320000000    -5.716000000     4.492000000
H    -3.147000000    -5.142000000     3.746000000
H    -3.034000000    -6.581000000     4.200000000
O     2.280000000    -5.881000000     4.727000000
H     2.582000000    -6.780000000     4.858000000
H     1.501000000    -5.808000000     5.280000000
O    -0.569000000    -7.815000000     2.743000000
H    -0.621000000    -6.860000000     2.783000000
H     0.344000000    -8.014000000     2.951000000
O     1.840000000    -8.649000000     3.418000000
H     2.699000000    -8.610000000     2.998000000
H     2.032000000    -8.641000000     4.356000000
O    -2.840000000    -9.521000000     2.825000000
H    -2.606000000   -10.031000000     2.049000000
H    -2.249000000    -8.768000000     2.804000000
O     1.679000000    -5.290000000    -1.899000000
H     1.031000000    -4.676000000    -1.552000000
H     1.183000000    -5.849000000    -2.497000000
O    -1.476000000    -7.917000000     6.863000000
H    -0.982000000    -7.331000000     6.290000000
H    -1.630000000    -8.698000000     6.331000000
O    -4.320000000    -5.845000000     0.574000000
H    -3.774000000    -5.311000000     1.152000000
H    -3.867000000    -5.826000000    -0.269000000
