218
-1466.82426
C     4.776000000    -0.744000000     0.161000000
H     4.528000000    -0.289000000     1.117000000
C     4.477000000    -0.001000000    -0.993000000
C     4.537000000    -0.635000000    -2.200000000
H     4.324000000    -0.049000000    -3.090000000
C     3.847000000     1.421000000    -0.863000000
O     4.381000000     2.280000000     0.134000000
H     2.792000000     1.236000000    -0.611000000
O     3.903000000     2.086000000    -2.152000000
C     2.757000000     2.580000000    -2.693000000
C     2.118000000     1.832000000    -3.639000000
H     2.578000000     0.886000000    -3.910000000
C     0.813000000     2.182000000    -4.104000000
O     0.152000000     1.229000000    -4.837000000
C     0.184000000     3.336000000    -3.680000000
C    -1.184000000     3.696000000    -4.161000000
H    -1.292000000     4.767000000    -4.342000000
C    -2.162000000     3.066000000    -3.221000000
C    -2.575000000     3.780000000    -2.080000000
H    -2.302000000     4.816000000    -1.899000000
H    -1.324000000     3.379000000    -5.197000000
C     0.844000000     4.130000000    -2.755000000
H     0.422000000     5.049000000    -2.355000000
C     2.115000000     3.776000000    -2.260000000
C     2.929000000     4.592000000    -1.214000000
H     2.730000000     5.666000000    -1.203000000
H     3.999000000     4.413000000    -1.341000000
C     2.613000000     4.064000000     0.231000000
C     1.653000000     4.745000000     1.021000000
H     1.000000000     5.496000000     0.585000000
C     3.402000000     3.031000000     0.801000000
C     3.238000000     2.648000000     2.101000000
H     3.865000000     1.871000000     2.531000000
C     2.240000000     3.224000000     2.811000000
O     1.908000000     2.614000000     4.029000000
C     0.824000000     1.671000000     4.085000000
C     1.189000000     0.432000000     4.810000000
C     0.189000000    -0.429000000     5.172000000
H    -0.845000000    -0.093000000     5.167000000
C     2.512000000     0.018000000     4.928000000
H     3.317000000     0.568000000     4.448000000
O    -0.418000000     2.403000000     4.497000000
H     0.627000000     1.310000000     3.065000000
C     1.419000000     4.263000000     2.303000000
C     0.253000000     4.848000000     3.130000000
H     0.247000000     5.930000000     2.981000000
H     0.474000000     4.742000000     4.194000000
C    -0.941000000     4.057000000     2.767000000
C    -1.859000000     4.454000000     1.744000000
H    -1.762000000     5.386000000     1.194000000
C    -1.223000000     2.915000000     3.527000000
C    -2.423000000     2.231000000     3.320000000
H    -2.652000000     1.354000000     3.919000000
C    -3.223000000     2.567000000     2.257000000
O    -4.254000000     1.617000000     1.970000000
C    -4.119000000     0.716000000     0.794000000
C    -4.658000000    -0.671000000     1.107000000
C    -4.603000000    -1.170000000     2.404000000
H    -4.184000000    -0.526000000     3.173000000
C    -5.300000000    -1.446000000     0.098000000
H    -5.491000000    -1.040000000    -0.892000000
O    -4.698000000     1.231000000    -0.409000000
H    -3.049000000     0.561000000     0.591000000
C    -3.001000000     3.695000000     1.425000000
C    -3.853000000     3.969000000     0.189000000
H    -3.915000000     5.037000000    -0.026000000
H    -4.897000000     3.748000000     0.417000000
C    -3.311000000     3.160000000    -1.069000000
C    -3.849000000     1.877000000    -1.318000000
C    -3.553000000     1.222000000    -2.455000000
H    -4.105000000     0.293000000    -2.570000000
C    -2.726000000     1.779000000    -3.395000000
O    -2.234000000     1.005000000    -4.329000000
C    -0.914000000     0.411000000    -4.227000000
H    -0.681000000     0.367000000    -3.153000000
C    -0.889000000    -1.096000000    -4.540000000
C     0.187000000    -1.656000000    -5.147000000
H     0.973000000    -0.975000000    -5.463000000
C    -1.897000000    -1.925000000    -3.957000000
H    -2.804000000    -1.587000000    -3.462000000
C    -1.724000000    -3.306000000    -4.046000000
O    -2.724000000    -4.173000000    -3.522000000
C    -0.593000000    -3.841000000    -4.679000000
H    -0.460000000    -4.915000000    -4.785000000
C     0.293000000    -3.053000000    -5.333000000
O     1.398000000    -3.668000000    -5.921000000
C     2.630000000    -3.075000000    -5.915000000
C     3.315000000    -2.854000000    -4.709000000
H     2.797000000    -3.165000000    -3.805000000
C     3.230000000    -2.714000000    -7.095000000
H     2.744000000    -3.027000000    -8.017000000
C     4.519000000    -2.227000000    -7.113000000
H     5.038000000    -2.205000000    -8.068000000
C     5.138000000    -1.889000000    -5.927000000
H     6.171000000    -1.559000000    -5.839000000
C     4.566000000    -2.310000000    -4.684000000
O     5.404000000    -2.502000000    -3.552000000
C     5.093000000    -1.954000000    -2.306000000
C     5.419000000    -2.655000000    -1.159000000
H     5.744000000    -3.691000000    -1.217000000
C     5.172000000    -2.077000000     0.076000000
O     5.490000000    -2.796000000     1.219000000
C     5.758000000    -2.123000000     2.410000000
C     4.858000000    -2.246000000     3.449000000
H     3.979000000    -2.883000000     3.393000000
C     6.896000000    -1.325000000     2.578000000
H     7.468000000    -1.164000000     1.668000000
C     7.163000000    -0.610000000     3.735000000
H     8.024000000     0.047000000     3.822000000
C     6.234000000    -0.843000000     4.774000000
H     6.229000000    -0.354000000     5.745000000
C     5.044000000    -1.603000000     4.606000000
O     4.059000000    -1.720000000     5.574000000
C     2.763000000    -1.194000000     5.504000000
C     1.761000000    -2.069000000     5.879000000
H     2.003000000    -3.082000000     6.191000000
C     0.427000000    -1.683000000     5.680000000
O    -0.521000000    -2.588000000     6.156000000
C    -1.896000000    -2.372000000     6.151000000
C    -2.682000000    -2.677000000     5.013000000
H    -2.204000000    -3.109000000     4.138000000
C    -2.542000000    -2.003000000     7.311000000
H    -1.986000000    -1.657000000     8.178000000
C    -3.914000000    -1.739000000     7.326000000
H    -4.289000000    -1.359000000     8.273000000
C    -4.656000000    -2.000000000     6.192000000
H    -5.735000000    -1.873000000     6.219000000
C    -4.019000000    -2.483000000     5.048000000
O    -4.801000000    -3.041000000     3.976000000
C    -5.105000000    -2.473000000     2.723000000
C    -5.751000000    -3.244000000     1.748000000
H    -6.045000000    -4.283000000     1.872000000
C    -5.807000000    -2.716000000     0.464000000
O    -6.356000000    -3.456000000    -0.523000000
C    -5.885000000    -3.414000000    -1.800000000
C    -6.765000000    -3.104000000    -2.867000000
H    -7.812000000    -2.901000000    -2.655000000
C    -6.165000000    -3.022000000    -4.114000000
H    -6.766000000    -2.712000000    -4.965000000
C    -4.890000000    -3.455000000    -4.382000000
H    -4.495000000    -3.428000000    -5.395000000
C    -4.050000000    -3.805000000    -3.341000000
C    -4.515000000    -3.749000000    -2.053000000
H    -3.868000000    -4.249000000    -1.338000000
C    -1.453000000    -2.338000000     0.319000000
H    -2.297000000    -2.924000000    -0.034000000
C    -1.258000000    -1.068000000    -0.104000000
H    -1.836000000    -0.713000000    -0.954000000
C    -0.341000000    -0.239000000     0.501000000
C    -0.210000000     1.146000000    -0.114000000
H    -0.023000000     1.070000000    -1.188000000
H    -1.192000000     1.604000000     0.020000000
H     0.584000000     1.741000000     0.341000000
C     0.514000000    -0.728000000     1.499000000
H     1.332000000    -0.151000000     1.922000000
C     0.234000000    -1.987000000     1.992000000
H     0.924000000    -2.402000000     2.723000000
C    -0.722000000    -2.849000000     1.436000000
C    -0.888000000    -4.169000000     2.058000000
O    -0.167000000    -4.570000000     2.955000000
O    -1.682000000    -4.951000000     1.625000000
O     2.428000000    -5.128000000     2.707000000
H     1.531000000    -4.964000000     2.998000000
H     2.815000000    -5.653000000     3.408000000
O    -2.921000000    -5.900000000     5.944000000
H    -3.155000000    -4.983000000     6.089000000
H    -2.011000000    -5.871000000     5.648000000
O     2.264000000    -7.205000000     1.086000000
H     2.506000000    -6.498000000     1.684000000
H     2.338000000    -8.000000000     1.614000000
O    -0.950000000    -8.596000000     6.722000000
H    -1.568000000    -8.981000000     6.101000000
H    -0.840000000    -7.693000000     6.421000000
O    -1.862000000   -10.278000000     2.024000000
H    -2.818000000   -10.241000000     2.011000000
H    -1.588000000    -9.367000000     2.126000000
O    -6.139000000    -5.749000000     4.400000000
H    -6.116000000    -4.834000000     4.679000000
H    -5.269000000    -5.910000000     4.034000000
O     4.835000000    -5.491000000     0.852000000
H     4.858000000    -4.655000000     1.317000000
H     3.941000000    -5.554000000     0.516000000
O     1.965000000    -2.262000000    -1.189000000
H     2.631000000    -1.587000000    -1.321000000
H     1.296000000    -1.837000000    -0.652000000
O    -3.582000000    -6.216000000     3.254000000
H    -2.776000000    -5.799000000     2.947000000
H    -3.364000000    -6.548000000     4.124000000
O    -0.137000000    -6.120000000     5.090000000
H     0.793000000    -6.235000000     5.287000000
H    -0.155000000    -5.469000000     4.388000000
O     0.731000000    -4.612000000     8.526000000
H     0.104000000    -4.386000000     9.214000000
H     0.187000000    -4.860000000     7.779000000
O    -3.625000000    -6.231000000     0.157000000
H    -2.984000000    -5.711000000     0.643000000
H    -4.383000000    -6.282000000     0.739000000
O    -0.181000000    -5.798000000    -0.445000000
H    -0.699000000    -5.394000000     0.250000000
H     0.274000000    -6.522000000    -0.015000000
O     2.542000000    -6.954000000     4.714000000
H     3.175000000    -6.773000000     5.409000000
H     2.816000000    -7.797000000     4.353000000
O    -0.675000000    -7.714000000     2.611000000
H    -1.235000000    -7.020000000     2.261000000
H    -0.331000000    -7.354000000     3.429000000
O    -2.649000000    -7.277000000    -2.145000000
H    -1.889000000    -6.734000000    -2.354000000
H    -2.926000000    -6.977000000    -1.279000000
O     3.140000000    -5.958000000    -1.159000000
H     2.697000000    -6.404000000    -0.437000000
H     2.534000000    -5.265000000    -1.420000000
O     2.356000000    -9.286000000    -0.736000000
H     2.357000000    -8.427000000    -0.312000000
H     1.583000000    -9.726000000    -0.383000000
O     1.254000000    -4.619000000    -2.359000000
H     1.556000000    -3.803000000    -1.959000000
H     0.561000000    -4.930000000    -1.776000000
