218
-1429.12020
C     4.696000000    -1.089000000    -0.471000000
H     4.368000000    -0.614000000     0.450000000
C     4.670000000    -0.274000000    -1.577000000
C     4.991000000    -0.864000000    -2.810000000
H     4.799000000    -0.281000000    -3.707000000
C     4.029000000     1.105000000    -1.539000000
O     4.506000000     1.964000000    -0.529000000
H     2.992000000     0.873000000    -1.255000000
O     4.022000000     1.799000000    -2.836000000
C     2.844000000     2.500000000    -3.143000000
C     1.958000000     1.795000000    -4.017000000
H     2.214000000     0.899000000    -4.576000000
C     0.647000000     2.237000000    -4.215000000
O    -0.161000000     1.339000000    -4.902000000
C     0.206000000     3.367000000    -3.527000000
C    -1.202000000     3.959000000    -3.851000000
H    -1.211000000     5.040000000    -3.699000000
C    -2.234000000     3.393000000    -2.807000000
C    -2.499000000     4.060000000    -1.600000000
H    -2.033000000     5.022000000    -1.403000000
H    -1.424000000     3.800000000    -4.908000000
C     1.094000000     4.072000000    -2.769000000
H     0.799000000     5.000000000    -2.287000000
C     2.360000000     3.631000000    -2.467000000
C     3.247000000     4.412000000    -1.501000000
H     2.935000000     5.455000000    -1.592000000
H     4.290000000     4.433000000    -1.823000000
C     3.012000000     3.885000000    -0.088000000
C     2.128000000     4.506000000     0.750000000
H     1.789000000     5.508000000     0.497000000
C     3.663000000     2.710000000     0.292000000
C     3.531000000     2.228000000     1.612000000
H     4.236000000     1.456000000     1.912000000
C     2.645000000     2.869000000     2.457000000
O     2.343000000     2.087000000     3.610000000
C     1.110000000     1.284000000     3.741000000
C     1.383000000    -0.010000000     4.540000000
C     0.339000000    -0.782000000     5.163000000
H    -0.674000000    -0.410000000     5.037000000
C     2.662000000    -0.549000000     4.629000000
H     3.499000000    -0.018000000     4.182000000
O     0.043000000     2.129000000     4.328000000
H     0.729000000     0.907000000     2.780000000
C     1.849000000     3.994000000     2.044000000
C     0.746000000     4.604000000     2.938000000
H     0.812000000     5.674000000     2.734000000
H     0.940000000     4.508000000     4.009000000
C    -0.626000000     3.883000000     2.757000000
C    -1.531000000     4.397000000     1.924000000
H    -1.209000000     5.312000000     1.433000000
C    -0.859000000     2.745000000     3.457000000
C    -2.075000000     2.175000000     3.410000000
H    -2.324000000     1.280000000     3.974000000
C    -3.028000000     2.695000000     2.521000000
O    -4.147000000     1.922000000     2.324000000
C    -4.109000000     1.027000000     1.173000000
C    -4.837000000    -0.264000000     1.503000000
C    -4.531000000    -0.831000000     2.736000000
H    -3.986000000    -0.233000000     3.461000000
C    -5.582000000    -0.985000000     0.619000000
H    -5.785000000    -0.612000000    -0.382000000
O    -4.752000000     1.576000000    -0.018000000
H    -3.046000000     0.814000000     0.989000000
C    -2.747000000     3.828000000     1.759000000
C    -3.679000000     4.266000000     0.573000000
H    -3.469000000     5.323000000     0.392000000
H    -4.708000000     4.381000000     0.922000000
C    -3.409000000     3.511000000    -0.672000000
C    -3.990000000     2.289000000    -0.902000000
C    -3.680000000     1.602000000    -2.062000000
H    -4.062000000     0.595000000    -2.209000000
C    -2.746000000     2.068000000    -2.957000000
O    -2.427000000     1.429000000    -4.118000000
C    -1.171000000     0.674000000    -4.087000000
H    -0.868000000     0.808000000    -3.038000000
C    -1.213000000    -0.836000000    -4.293000000
C    -0.172000000    -1.498000000    -4.954000000
H     0.538000000    -0.965000000    -5.581000000
C    -2.210000000    -1.637000000    -3.636000000
H    -2.849000000    -1.083000000    -2.953000000
C    -2.127000000    -3.012000000    -3.743000000
O    -3.116000000    -3.788000000    -3.186000000
C    -0.977000000    -3.607000000    -4.350000000
H    -0.828000000    -4.682000000    -4.290000000
C    -0.046000000    -2.865000000    -4.971000000
O     1.093000000    -3.467000000    -5.540000000
C     2.322000000    -2.989000000    -5.886000000
C     3.317000000    -3.412000000    -4.948000000
H     3.177000000    -4.203000000    -4.216000000
C     2.506000000    -1.920000000    -6.737000000
H     1.687000000    -1.528000000    -7.334000000
C     3.702000000    -1.311000000    -6.843000000
H     3.848000000    -0.518000000    -7.571000000
C     4.707000000    -1.756000000    -5.976000000
H     5.662000000    -1.248000000    -6.086000000
C     4.525000000    -2.717000000    -5.056000000
O     5.496000000    -3.004000000    -4.039000000
C     5.357000000    -2.275000000    -2.859000000
C     5.226000000    -3.045000000    -1.719000000
H     5.352000000    -4.120000000    -1.821000000
C     5.047000000    -2.431000000    -0.498000000
O     4.897000000    -3.176000000     0.640000000
C     5.312000000    -2.800000000     1.909000000
C     4.468000000    -2.771000000     2.991000000
H     3.439000000    -3.095000000     2.857000000
C     6.629000000    -2.424000000     2.062000000
H     7.261000000    -2.577000000     1.191000000
C     7.160000000    -2.094000000     3.318000000
H     8.197000000    -1.795000000     3.452000000
C     6.272000000    -2.002000000     4.406000000
H     6.712000000    -1.741000000     5.365000000
C     4.944000000    -2.316000000     4.241000000
O     4.092000000    -2.225000000     5.353000000
C     2.863000000    -1.736000000     5.311000000
C     1.831000000    -2.503000000     5.885000000
H     2.005000000    -3.391000000     6.487000000
C     0.607000000    -1.962000000     5.834000000
O    -0.395000000    -2.698000000     6.380000000
C    -1.769000000    -2.312000000     6.359000000
C    -2.637000000    -2.686000000     5.348000000
H    -2.197000000    -3.393000000     4.649000000
C    -2.202000000    -1.338000000     7.219000000
H    -1.490000000    -0.950000000     7.943000000
C    -3.516000000    -0.872000000     7.117000000
H    -3.837000000    -0.141000000     7.855000000
C    -4.389000000    -1.316000000     6.114000000
H    -5.351000000    -0.896000000     5.829000000
C    -3.868000000    -2.201000000     5.143000000
O    -4.745000000    -2.691000000     4.285000000
C    -5.032000000    -2.117000000     3.017000000
C    -5.826000000    -2.809000000     2.168000000
H    -6.184000000    -3.813000000     2.381000000
C    -6.014000000    -2.307000000     0.911000000
O    -6.592000000    -3.155000000     0.003000000
C    -6.146000000    -3.172000000    -1.290000000
C    -7.074000000    -2.923000000    -2.337000000
H    -8.123000000    -2.983000000    -2.057000000
C    -6.618000000    -2.911000000    -3.643000000
H    -7.355000000    -2.824000000    -4.437000000
C    -5.290000000    -2.960000000    -4.016000000
H    -4.858000000    -3.007000000    -5.013000000
C    -4.402000000    -3.308000000    -2.992000000
C    -4.892000000    -3.385000000    -1.623000000
H    -4.187000000    -3.605000000    -0.826000000
C    -1.776000000    -2.747000000     0.685000000
H    -2.762000000    -3.119000000     0.416000000
C    -1.281000000    -1.584000000     0.092000000
H    -1.898000000    -0.904000000    -0.490000000
C    -0.002000000    -1.139000000     0.299000000
C     0.675000000     0.077000000    -0.281000000
H     1.433000000     0.524000000     0.364000000
H     1.115000000    -0.328000000    -1.195000000
H    -0.089000000     0.792000000    -0.592000000
C     0.758000000    -1.830000000     1.172000000
H     1.736000000    -1.462000000     1.471000000
C     0.338000000    -2.994000000     1.773000000
H     1.072000000    -3.495000000     2.399000000
C    -0.966000000    -3.465000000     1.601000000
C    -1.459000000    -4.737000000     2.246000000
O    -0.641000000    -5.446000000     2.831000000
O    -2.595000000    -5.237000000     2.221000000
O     1.891000000    -6.166000000     1.930000000
H     0.938000000    -6.144000000     2.012000000
H     2.212000000    -5.970000000     2.810000000
O    -6.574000000    -6.890000000     3.001000000
H    -6.215000000    -6.385000000     2.271000000
H    -7.141000000    -7.540000000     2.586000000
O    -0.021000000    -8.890000000    -0.813000000
H    -0.076000000    -8.774000000    -1.762000000
H    -0.284000000    -8.043000000    -0.453000000
O     2.023000000    -5.157000000    -0.529000000
H     2.010000000    -5.479000000     0.373000000
H     1.769000000    -4.237000000    -0.458000000
O    -4.685000000    -6.912000000    -1.767000000
H    -4.235000000    -7.740000000    -1.933000000
H    -5.127000000    -6.710000000    -2.592000000
O    -1.476000000    -6.294000000    -2.291000000
H    -1.844000000    -5.424000000    -2.441000000
H    -1.827000000    -6.560000000    -1.441000000
O    -3.325000000    -8.877000000     4.393000000
H    -2.400000000    -8.776000000     4.172000000
H    -3.707000000    -8.015000000     4.226000000
O    -1.461000000    -5.613000000     5.313000000
H    -1.001000000    -5.411000000     4.498000000
H    -2.358000000    -5.804000000     5.039000000
O    -0.853000000    -5.024000000     8.016000000
H    -0.217000000    -5.734000000     8.098000000
H    -1.082000000    -5.014000000     7.086000000
O    -1.722000000    -7.087000000     0.212000000
H    -1.938000000    -6.492000000     0.931000000
H    -2.146000000    -7.912000000     0.449000000
O     3.341000000    -8.469000000     1.158000000
H     2.830000000    -7.667000000     1.264000000
H     4.247000000    -8.197000000     1.305000000
O     1.275000000    -6.864000000    -2.468000000
H     1.549000000    -6.188000000    -1.848000000
H     0.355000000    -6.667000000    -2.645000000
O    -4.094000000    -6.451000000     4.088000000
H    -4.896000000    -6.761000000     3.667000000
H    -3.597000000    -6.037000000     3.382000000
O     2.675000000    -5.343000000     4.756000000
H     2.797000000    -5.577000000     5.676000000
H     3.155000000    -4.522000000     4.652000000
O    -0.654000000    -8.204000000     2.822000000
H    -0.626000000    -7.258000000     2.966000000
H     0.077000000    -8.546000000     3.336000000
O     1.895000000    -8.024000000     4.903000000
H     2.101000000    -7.109000000     5.092000000
H     2.691000000    -8.502000000     5.138000000
O    -2.353000000    -9.646000000     1.273000000
H    -1.962000000   -10.515000000     1.179000000
H    -1.742000000    -9.168000000     1.834000000
O    -0.740000000    -8.391000000     6.098000000
H    -1.031000000    -7.483000000     6.176000000
H     0.043000000    -8.345000000     5.548000000
O    -5.099000000    -5.643000000     1.092000000
H    -4.207000000    -5.493000000     1.405000000
H    -4.986000000    -6.103000000     0.260000000
