218
-1463.07509
C     5.170000000    -0.635000000     1.273000000
H     4.699000000    -0.426000000     2.230000000
C     4.911000000     0.241000000     0.221000000
C     5.389000000    -0.108000000    -1.013000000
H     5.352000000     0.590000000    -1.845000000
C     4.030000000     1.488000000     0.436000000
O     4.213000000     2.151000000     1.712000000
H     2.963000000     1.245000000     0.321000000
O     4.299000000     2.399000000    -0.524000000
C     3.332000000     3.154000000    -1.204000000
C     2.949000000     2.656000000    -2.398000000
H     3.357000000     1.742000000    -2.821000000
C     1.792000000     3.121000000    -2.956000000
O     1.254000000     2.531000000    -4.145000000
C     1.122000000     4.208000000    -2.419000000
C    -0.186000000     4.766000000    -2.894000000
H    -0.280000000     5.774000000    -2.485000000
C    -1.402000000     3.973000000    -2.478000000
C    -2.091000000     4.275000000    -1.299000000
H    -1.667000000     5.060000000    -0.679000000
H    -0.076000000     4.905000000    -3.972000000
C     1.539000000     4.687000000    -1.187000000
H     1.047000000     5.482000000    -0.632000000
C     2.674000000     4.240000000    -0.582000000
C     2.989000000     4.666000000     0.812000000
H     2.732000000     5.718000000     0.958000000
H     4.066000000     4.734000000     0.978000000
C     2.376000000     3.693000000     1.882000000
C     1.260000000     4.171000000     2.596000000
H     0.799000000     5.068000000     2.191000000
C     3.084000000     2.542000000     2.374000000
C     2.560000000     1.839000000     3.430000000
H     3.124000000     0.952000000     3.707000000
C     1.339000000     2.216000000     4.016000000
O     0.772000000     1.316000000     4.861000000
C    -0.377000000     0.622000000     4.381000000
C    -0.195000000    -0.901000000     4.603000000
C    -1.307000000    -1.705000000     4.743000000
H    -2.271000000    -1.211000000     4.651000000
C     1.051000000    -1.542000000     4.581000000
H     1.974000000    -0.975000000     4.505000000
O    -1.592000000     1.129000000     4.947000000
H    -0.398000000     0.778000000     3.292000000
C     0.685000000     3.425000000     3.629000000
C    -0.702000000     3.765000000     4.212000000
H    -0.869000000     4.842000000     4.144000000
H    -0.596000000     3.520000000     5.271000000
C    -1.882000000     3.114000000     3.530000000
C    -2.405000000     3.728000000     2.379000000
H    -1.985000000     4.613000000     1.908000000
C    -2.223000000     1.829000000     3.865000000
C    -3.230000000     1.210000000     3.173000000
H    -3.538000000     0.187000000     3.375000000
C    -3.766000000     1.831000000     2.018000000
O    -4.629000000     1.005000000     1.288000000
C    -4.204000000     0.553000000    -0.021000000
C    -4.688000000    -0.858000000    -0.264000000
C    -4.909000000    -1.811000000     0.732000000
H    -4.903000000    -1.425000000     1.748000000
C    -4.714000000    -1.343000000    -1.617000000
H    -4.399000000    -0.606000000    -2.352000000
O    -4.541000000     1.524000000    -1.088000000
H    -3.111000000     0.462000000     0.063000000
C    -3.362000000     3.091000000     1.581000000
C    -3.845000000     3.860000000     0.417000000
H    -3.821000000     4.949000000     0.499000000
H    -4.885000000     3.664000000     0.149000000
C    -3.139000000     3.497000000    -0.870000000
C    -3.516000000     2.356000000    -1.502000000
C    -2.870000000     2.044000000    -2.707000000
H    -3.287000000     1.249000000    -3.319000000
C    -1.818000000     2.852000000    -3.150000000
O    -1.109000000     2.382000000    -4.199000000
C     0.107000000     1.712000000    -3.926000000
H     0.156000000     1.495000000    -2.848000000
C     0.224000000     0.394000000    -4.667000000
C     1.402000000    -0.372000000    -4.550000000
H     2.202000000     0.062000000    -3.954000000
C    -0.889000000    -0.084000000    -5.343000000
H    -1.901000000     0.311000000    -5.376000000
C    -0.761000000    -1.429000000    -5.809000000
O    -1.885000000    -2.053000000    -6.369000000
C     0.444000000    -2.150000000    -5.784000000
H     0.444000000    -3.150000000    -6.212000000
C     1.506000000    -1.638000000    -5.083000000
O     2.630000000    -2.434000000    -4.931000000
C     3.889000000    -1.827000000    -4.882000000
C     4.651000000    -1.970000000    -3.707000000
H     4.264000000    -2.672000000    -2.973000000
C     4.404000000    -1.074000000    -5.927000000
H     3.808000000    -0.915000000    -6.822000000
C     5.660000000    -0.484000000    -5.761000000
H     6.133000000    -0.012000000    -6.619000000
C     6.476000000    -0.636000000    -4.667000000
H     7.477000000    -0.220000000    -4.743000000
C     5.884000000    -1.317000000    -3.543000000
O     6.631000000    -1.670000000    -2.462000000
C     6.084000000    -1.282000000    -1.207000000
C     6.206000000    -2.128000000    -0.188000000
H     6.530000000    -3.154000000    -0.338000000
C     5.755000000    -1.831000000     1.068000000
O     5.982000000    -2.742000000     2.076000000
C     5.458000000    -2.705000000     3.343000000
C     4.157000000    -3.195000000     3.611000000
H     3.634000000    -3.731000000     2.823000000
C     6.191000000    -2.069000000     4.371000000
H     7.188000000    -1.678000000     4.185000000
C     5.614000000    -1.870000000     5.603000000
H     6.195000000    -1.431000000     6.410000000
C     4.317000000    -2.313000000     5.820000000
H     3.786000000    -2.215000000     6.763000000
C     3.581000000    -3.001000000     4.852000000
O     2.392000000    -3.508000000     5.236000000
C     1.206000000    -2.925000000     4.878000000
C     0.015000000    -3.685000000     5.027000000
H     0.155000000    -4.761000000     5.086000000
C    -1.222000000    -3.082000000     4.918000000
O    -2.347000000    -3.956000000     5.112000000
C    -3.601000000    -3.846000000     4.594000000
C    -3.877000000    -3.870000000     3.200000000
H    -2.996000000    -3.880000000     2.563000000
C    -4.668000000    -4.212000000     5.439000000
H    -4.424000000    -4.320000000     6.493000000
C    -5.977000000    -4.396000000     4.979000000
H    -6.867000000    -4.693000000     5.527000000
C    -6.170000000    -4.394000000     3.594000000
H    -7.136000000    -4.577000000     3.130000000
C    -5.133000000    -4.100000000     2.693000000
O    -5.404000000    -4.130000000     1.372000000
C    -5.083000000    -3.141000000     0.414000000
C    -5.063000000    -3.572000000    -0.882000000
H    -5.352000000    -4.614000000    -0.989000000
C    -4.937000000    -2.693000000    -1.946000000
O    -5.191000000    -3.125000000    -3.209000000
C    -4.797000000    -2.423000000    -4.327000000
C    -5.712000000    -1.721000000    -5.113000000
H    -6.693000000    -1.595000000    -4.663000000
C    -5.373000000    -1.147000000    -6.299000000
H    -6.112000000    -0.492000000    -6.754000000
C    -4.061000000    -1.299000000    -6.758000000
H    -3.807000000    -0.817000000    -7.699000000
C    -3.127000000    -1.932000000    -5.944000000
C    -3.502000000    -2.544000000    -4.757000000
H    -2.829000000    -3.151000000    -4.156000000
C    -0.221000000    -2.161000000    -2.060000000
H    -0.963000000    -2.473000000    -2.791000000
C    -0.390000000    -0.819000000    -1.611000000
H    -1.222000000    -0.204000000    -1.943000000
C     0.465000000    -0.335000000    -0.662000000
C     0.288000000     1.015000000     0.061000000
H    -0.734000000     1.395000000     0.007000000
H     0.588000000     0.826000000     1.094000000
H     0.963000000     1.745000000    -0.389000000
C     1.406000000    -1.255000000    -0.115000000
H     1.913000000    -0.845000000     0.754000000
C     1.530000000    -2.581000000    -0.588000000
H     2.277000000    -3.250000000    -0.170000000
C     0.745000000    -3.016000000    -1.595000000
C     0.962000000    -4.381000000    -2.113000000
O     2.121000000    -4.880000000    -2.101000000
O    -0.023000000    -4.876000000    -2.648000000
O    -2.346000000    -5.855000000    -6.060000000
H    -2.981000000    -5.289000000    -5.621000000
H    -2.305000000    -5.519000000    -6.956000000
O    -3.586000000    -6.115000000    -2.935000000
H    -2.857000000    -5.811000000    -2.395000000
H    -3.303000000    -6.970000000    -3.260000000
O    -1.293000000    -9.292000000    -5.580000000
H    -2.064000000    -9.050000000    -6.094000000
H    -1.454000000    -8.915000000    -4.715000000
O     3.641000000    -7.514000000    -6.072000000
H     3.640000000    -7.197000000    -5.169000000
H     4.309000000    -8.199000000    -6.086000000
O     1.940000000    -7.492000000    -2.209000000
H     1.551000000    -6.618000000    -2.162000000
H     2.808000000    -7.388000000    -1.818000000
O     1.291000000    -8.768000000    -4.359000000
H     1.486000000    -8.371000000    -3.511000000
H     0.980000000    -8.041000000    -4.899000000
O     5.506000000    -6.176000000    -2.708000000
H     6.215000000    -5.546000000    -2.839000000
H     4.792000000    -5.851000000    -3.257000000
O     6.112000000    -6.251000000     1.175000000
H     5.448000000    -6.909000000     1.381000000
H     5.646000000    -5.592000000     0.662000000
O    -0.407000000    -4.815000000     1.257000000
H     0.052000000    -5.483000000     1.766000000
H     0.139000000    -4.034000000     1.341000000
O     2.217000000    -5.933000000     2.219000000
H     2.790000000    -5.932000000     1.452000000
H     1.405000000    -6.335000000     1.911000000
O    -2.168000000    -8.448000000     0.245000000
H    -1.974000000    -7.602000000    -0.158000000
H    -2.864000000    -8.819000000    -0.298000000
O     4.685000000    -8.064000000    -0.948000000
H     4.900000000    -8.976000000    -1.145000000
H     5.300000000    -7.554000000    -1.476000000
O     3.390000000    -5.405000000    -4.185000000
H     3.256000000    -4.604000000    -4.692000000
H     2.882000000    -5.269000000    -3.385000000
O     3.669000000    -5.615000000    -0.051000000
H     4.033000000    -6.454000000    -0.333000000
H     3.061000000    -5.371000000    -0.749000000
O     0.242000000    -9.203000000    -1.043000000
H    -0.549000000    -8.703000000    -1.245000000
H     0.959000000    -8.662000000    -1.374000000
O     0.276000000    -7.784000000     1.503000000
H     0.602000000    -8.671000000     1.655000000
H    -0.650000000    -7.902000000     1.293000000
O    -1.411000000    -6.141000000    -0.824000000
H    -1.097000000    -5.632000000    -1.571000000
H    -1.206000000    -5.600000000    -0.062000000
O     1.593000000    -6.140000000    -7.632000000
H     2.400000000    -6.560000000    -7.931000000
H     1.683000000    -6.101000000    -6.680000000
O     0.073000000    -6.281000000    -5.123000000
H    -0.869000000    -6.322000000    -5.288000000
H     0.155000000    -5.740000000    -4.338000000
