218
-1441.40303
C     4.590000000    -0.570000000     1.138000000
H     4.199000000    -0.498000000     2.149000000
C     4.730000000     0.592000000     0.341000000
C     5.281000000     0.465000000    -0.915000000
H     5.457000000     1.253000000    -1.643000000
C     3.974000000     1.905000000     0.679000000
O     4.042000000     2.213000000     2.079000000
H     2.915000000     1.696000000     0.468000000
O     4.305000000     3.045000000    -0.174000000
C     3.222000000     3.674000000    -0.828000000
C     2.871000000     3.257000000    -2.087000000
H     3.522000000     2.555000000    -2.602000000
C     1.690000000     3.641000000    -2.662000000
O     1.302000000     2.904000000    -3.739000000
C     0.846000000     4.525000000    -2.018000000
C    -0.519000000     4.909000000    -2.462000000
H    -0.746000000     5.950000000    -2.223000000
C    -1.617000000     3.923000000    -2.058000000
C    -2.438000000     4.098000000    -0.914000000
H    -2.267000000     5.022000000    -0.367000000
H    -0.410000000     4.914000000    -3.549000000
C     1.218000000     4.986000000    -0.674000000
H     0.643000000     5.731000000    -0.130000000
C     2.423000000     4.509000000    -0.066000000
C     2.662000000     4.746000000     1.452000000
H     2.230000000     5.738000000     1.600000000
H     3.735000000     4.885000000     1.598000000
C     2.155000000     3.643000000     2.399000000
C     0.889000000     3.898000000     2.956000000
H     0.195000000     4.637000000     2.563000000
C     2.838000000     2.462000000     2.749000000
C     2.268000000     1.542000000     3.637000000
H     2.754000000     0.589000000     3.826000000
C     1.034000000     1.880000000     4.238000000
O     0.424000000     0.859000000     4.888000000
C    -0.474000000     0.024000000     4.212000000
C    -0.243000000    -1.455000000     4.555000000
C    -1.165000000    -2.393000000     4.169000000
H    -2.099000000    -2.094000000     3.700000000
C     0.990000000    -1.935000000     4.947000000
H     1.780000000    -1.221000000     5.164000000
O    -1.783000000     0.348000000     4.683000000
H    -0.352000000     0.183000000     3.130000000
C     0.303000000     2.981000000     3.805000000
C    -1.097000000     3.157000000     4.346000000
H    -1.312000000     4.225000000     4.274000000
H    -1.157000000     2.855000000     5.394000000
C    -2.224000000     2.543000000     3.551000000
C    -2.893000000     3.324000000     2.582000000
H    -2.781000000     4.404000000     2.540000000
C    -2.527000000     1.179000000     3.773000000
C    -3.543000000     0.618000000     3.037000000
H    -3.854000000    -0.406000000     3.227000000
C    -4.020000000     1.332000000     2.002000000
O    -4.872000000     0.691000000     1.154000000
C    -4.194000000     0.189000000    -0.035000000
C    -4.582000000    -1.253000000    -0.368000000
C    -5.053000000    -2.194000000     0.535000000
H    -5.159000000    -1.863000000     1.565000000
C    -4.295000000    -1.630000000    -1.696000000
H    -3.986000000    -0.909000000    -2.449000000
O    -4.516000000     1.084000000    -1.083000000
H    -3.126000000     0.104000000     0.217000000
C    -3.755000000     2.695000000     1.763000000
C    -4.324000000     3.511000000     0.602000000
H    -4.286000000     4.560000000     0.902000000
H    -5.348000000     3.241000000     0.338000000
C    -3.456000000     3.202000000    -0.618000000
C    -3.653000000     2.082000000    -1.417000000
C    -2.908000000     2.013000000    -2.600000000
H    -3.087000000     1.263000000    -3.368000000
C    -1.812000000     2.807000000    -2.863000000
O    -1.019000000     2.577000000    -3.917000000
C     0.253000000     1.966000000    -3.632000000
H     0.139000000     1.574000000    -2.611000000
C     0.446000000     0.745000000    -4.508000000
C     1.684000000     0.100000000    -4.524000000
H     2.417000000     0.464000000    -3.810000000
C    -0.638000000     0.237000000    -5.262000000
H    -1.517000000     0.861000000    -5.401000000
C    -0.463000000    -0.918000000    -6.067000000
O    -1.508000000    -1.321000000    -6.782000000
C     0.780000000    -1.550000000    -6.092000000
H     0.890000000    -2.392000000    -6.772000000
C     1.883000000    -1.055000000    -5.333000000
O     3.140000000    -1.663000000    -5.439000000
C     4.302000000    -1.023000000    -5.155000000
C     4.892000000    -1.153000000    -3.892000000
H     4.336000000    -1.532000000    -3.038000000
C     5.102000000    -0.566000000    -6.232000000
H     4.696000000    -0.680000000    -7.234000000
C     6.380000000     0.008000000    -5.946000000
H     6.986000000     0.482000000    -6.714000000
C     6.913000000    -0.137000000    -4.656000000
H     7.910000000     0.214000000    -4.402000000
C     6.192000000    -0.707000000    -3.656000000
O     6.615000000    -0.828000000    -2.373000000
C     5.924000000    -0.747000000    -1.192000000
C     5.829000000    -1.927000000    -0.405000000
H     6.319000000    -2.864000000    -0.657000000
C     5.027000000    -1.793000000     0.719000000
O     4.993000000    -2.837000000     1.586000000
C     4.850000000    -2.719000000     2.948000000
C     3.745000000    -3.298000000     3.529000000
H     2.936000000    -3.757000000     2.968000000
C     5.787000000    -2.064000000     3.767000000
H     6.706000000    -1.668000000     3.344000000
C     5.634000000    -2.060000000     5.133000000
H     6.357000000    -1.543000000     5.758000000
C     4.499000000    -2.696000000     5.730000000
H     4.438000000    -2.674000000     6.815000000
C     3.621000000    -3.383000000     4.919000000
O     2.454000000    -3.917000000     5.470000000
C     1.228000000    -3.330000000     5.150000000
C     0.158000000    -4.194000000     4.882000000
H     0.235000000    -5.267000000     5.042000000
C    -0.976000000    -3.744000000     4.365000000
O    -1.863000000    -4.691000000     3.970000000
C    -3.176000000    -4.458000000     3.812000000
C    -3.730000000    -4.636000000     2.518000000
H    -3.095000000    -4.905000000     1.677000000
C    -3.981000000    -4.069000000     4.891000000
H    -3.566000000    -3.895000000     5.880000000
C    -5.308000000    -3.848000000     4.687000000
H    -5.941000000    -3.600000000     5.535000000
C    -5.903000000    -4.178000000     3.465000000
H    -6.970000000    -4.007000000     3.350000000
C    -5.086000000    -4.450000000     2.341000000
O    -5.644000000    -4.498000000     1.007000000
C    -5.261000000    -3.550000000     0.115000000
C    -4.965000000    -3.907000000    -1.183000000
H    -5.045000000    -4.980000000    -1.339000000
C    -4.578000000    -2.962000000    -2.100000000
O    -4.217000000    -3.391000000    -3.383000000
C    -4.130000000    -2.549000000    -4.453000000
C    -5.241000000    -1.724000000    -4.807000000
H    -6.178000000    -1.730000000    -4.257000000
C    -5.065000000    -0.743000000    -5.744000000
H    -5.909000000    -0.078000000    -5.906000000
C    -3.855000000    -0.588000000    -6.447000000
H    -3.731000000     0.329000000    -7.019000000
C    -2.744000000    -1.485000000    -6.206000000
C    -2.927000000    -2.448000000    -5.207000000
H    -2.049000000    -2.994000000    -4.871000000
C    -0.929000000    -3.004000000    -1.302000000
H    -1.335000000    -3.387000000    -2.234000000
C    -0.845000000    -1.605000000    -1.136000000
H    -1.356000000    -0.928000000    -1.816000000
C    -0.190000000    -1.038000000    -0.086000000
C    -0.260000000     0.471000000     0.126000000
H    -0.984000000     0.805000000    -0.620000000
H    -0.637000000     0.761000000     1.108000000
H     0.750000000     0.838000000    -0.070000000
C     0.522000000    -1.833000000     0.804000000
H     1.050000000    -1.428000000     1.664000000
C     0.562000000    -3.245000000     0.558000000
H     0.971000000    -3.844000000     1.368000000
C    -0.198000000    -3.847000000    -0.461000000
C    -0.209000000    -5.306000000    -0.757000000
O    -0.002000000    -6.148000000     0.130000000
O    -0.424000000    -5.666000000    -1.903000000
O     4.482000000    -5.616000000     0.427000000
H     4.198000000    -5.163000000    -0.367000000
H     3.696000000    -6.062000000     0.743000000
O     4.442000000    -4.911000000    -2.845000000
H     3.648000000    -5.419000000    -3.011000000
H     4.707000000    -4.592000000    -3.708000000
O    -3.540000000    -5.766000000    -6.098000000
H    -2.701000000    -5.427000000    -6.410000000
H    -3.680000000    -5.324000000    -5.260000000
O     2.505000000    -7.680000000    -5.260000000
H     2.015000000    -7.995000000    -6.019000000
H     1.979000000    -6.956000000    -4.919000000
O    -5.309000000    -7.621000000    -2.514000000
H    -5.292000000    -8.541000000    -2.778000000
H    -4.409000000    -7.320000000    -2.636000000
O    -0.976000000    -8.512000000    -1.730000000
H    -1.524000000    -8.267000000    -2.476000000
H    -0.775000000    -7.682000000    -1.298000000
O    -2.523000000    -8.133000000    -4.130000000
H    -2.841000000    -7.232000000    -4.184000000
H    -3.088000000    -8.623000000    -4.729000000
O    -1.023000000    -7.839000000     4.971000000
H    -0.990000000    -7.762000000     4.018000000
H    -1.649000000    -7.168000000     5.245000000
O    -0.989000000    -7.671000000     2.228000000
H    -0.796000000    -6.909000000     1.681000000
H    -1.125000000    -8.385000000     1.605000000
O     4.395000000    -9.187000000    -2.269000000
H     3.899000000    -8.382000000    -2.120000000
H     3.849000000    -9.698000000    -2.867000000
O     2.348000000    -7.004000000    -2.061000000
H     1.569000000    -6.654000000    -2.491000000
H     2.065000000    -7.190000000    -1.166000000
O     2.087000000    -6.947000000     1.272000000
H     1.880000000    -7.036000000     2.202000000
H     1.246000000    -6.754000000     0.857000000
O     0.367000000   -10.518000000    -2.960000000
H     0.456000000   -11.194000000    -2.288000000
H    -0.145000000    -9.827000000    -2.540000000
O     1.878000000   -10.918000000     1.365000000
H     2.076000000   -11.821000000     1.614000000
H     1.289000000   -10.999000000     0.615000000
O    -1.629000000    -9.749000000     0.569000000
H    -1.277000000    -9.375000000    -0.239000000
H    -2.339000000   -10.321000000     0.278000000
O    -3.171000000    -5.783000000    -2.933000000
H    -2.225000000    -5.710000000    -2.808000000
H    -3.540000000    -5.094000000    -2.381000000
O     2.251000000    -4.861000000    -6.843000000
H     2.790000000    -5.575000000    -6.503000000
H     1.356000000    -5.102000000    -6.604000000
O     0.957000000    -5.354000000    -4.276000000
H     1.115000000    -4.423000000    -4.432000000
H     0.291000000    -5.372000000    -3.589000000
O    -4.217000000    -9.011000000     2.641000000
H    -4.731000000    -8.683000000     3.379000000
H    -3.357000000    -8.606000000     2.749000000
