218
-1475.69928
C     4.899000000    -0.768000000     1.248000000
H     4.386000000    -0.547000000     2.180000000
C     4.904000000     0.264000000     0.308000000
C     5.509000000     0.174000000    -0.959000000
H     5.639000000     1.043000000    -1.598000000
C     4.134000000     1.536000000     0.651000000
O     4.245000000     2.024000000     2.014000000
H     3.061000000     1.399000000     0.449000000
O     4.591000000     2.594000000    -0.226000000
C     3.554000000     3.260000000    -0.890000000
C     3.091000000     2.909000000    -2.089000000
H     3.732000000     2.185000000    -2.586000000
C     1.830000000     3.234000000    -2.568000000
O     1.338000000     2.549000000    -3.687000000
C     1.056000000     4.219000000    -1.942000000
C    -0.199000000     4.788000000    -2.501000000
H    -0.489000000     5.714000000    -1.999000000
C    -1.486000000     3.932000000    -2.224000000
C    -2.297000000     4.223000000    -1.112000000
H    -2.000000000     5.024000000    -0.440000000
H    -0.016000000     5.020000000    -3.553000000
C     1.601000000     4.702000000    -0.738000000
H     1.110000000     5.565000000    -0.295000000
C     2.727000000     4.161000000    -0.125000000
C     3.058000000     4.566000000     1.310000000
H     2.648000000     5.566000000     1.465000000
H     4.130000000     4.727000000     1.448000000
C     2.449000000     3.710000000     2.322000000
C     1.239000000     4.054000000     2.933000000
H     0.576000000     4.872000000     2.666000000
C     3.066000000     2.468000000     2.664000000
C     2.514000000     1.597000000     3.570000000
H     3.075000000     0.678000000     3.720000000
C     1.289000000     1.917000000     4.098000000
O     0.681000000     0.951000000     4.858000000
C    -0.392000000     0.211000000     4.249000000
C    -0.297000000    -1.235000000     4.627000000
C    -1.491000000    -1.944000000     4.838000000
H    -2.466000000    -1.462000000     4.835000000
C     0.896000000    -1.969000000     4.532000000
H     1.786000000    -1.428000000     4.223000000
O    -1.637000000     0.779000000     4.718000000
H    -0.310000000     0.216000000     3.152000000
C     0.621000000     3.104000000     3.786000000
C    -0.759000000     3.444000000     4.381000000
H    -0.980000000     4.506000000     4.510000000
H    -0.855000000     3.062000000     5.400000000
C    -1.876000000     2.842000000     3.529000000
C    -2.465000000     3.542000000     2.522000000
H    -2.041000000     4.513000000     2.278000000
C    -2.332000000     1.520000000     3.837000000
C    -3.252000000     0.879000000     3.006000000
H    -3.593000000    -0.131000000     3.216000000
C    -3.813000000     1.574000000     1.980000000
O    -4.657000000     0.921000000     1.102000000
C    -4.144000000     0.439000000    -0.103000000
C    -4.583000000    -1.038000000    -0.381000000
C    -4.641000000    -2.052000000     0.606000000
H    -4.393000000    -1.825000000     1.640000000
C    -4.814000000    -1.365000000    -1.684000000
H    -4.798000000    -0.589000000    -2.446000000
O    -4.556000000     1.396000000    -1.175000000
H    -3.051000000     0.556000000    -0.065000000
C    -3.456000000     2.936000000     1.783000000
C    -4.041000000     3.694000000     0.577000000
H    -3.907000000     4.765000000     0.746000000
H    -5.121000000     3.553000000     0.495000000
C    -3.352000000     3.433000000    -0.758000000
C    -3.605000000     2.309000000    -1.522000000
C    -2.836000000     2.012000000    -2.627000000
H    -2.935000000     1.098000000    -3.207000000
C    -1.814000000     2.804000000    -2.957000000
O    -0.973000000     2.468000000    -3.986000000
C     0.137000000     1.730000000    -3.611000000
H     0.078000000     1.392000000    -2.566000000
C     0.315000000     0.484000000    -4.436000000
C     1.640000000    -0.015000000    -4.657000000
H     2.511000000     0.483000000    -4.241000000
C    -0.824000000    -0.129000000    -5.020000000
H    -1.850000000     0.217000000    -4.922000000
C    -0.616000000    -1.244000000    -5.829000000
O    -1.711000000    -1.972000000    -6.348000000
C     0.697000000    -1.782000000    -5.953000000
H     0.810000000    -2.671000000    -6.568000000
C     1.794000000    -1.189000000    -5.394000000
O     3.058000000    -1.745000000    -5.501000000
C     4.232000000    -1.022000000    -5.237000000
C     4.866000000    -1.327000000    -4.069000000
H     4.416000000    -1.999000000    -3.344000000
C     4.854000000    -0.122000000    -6.115000000
H     4.462000000    -0.048000000    -7.126000000
C     6.096000000     0.332000000    -5.852000000
H     6.616000000     0.873000000    -6.638000000
C     6.675000000     0.025000000    -4.585000000
H     7.665000000     0.375000000    -4.303000000
C     6.104000000    -0.847000000    -3.746000000
O     6.762000000    -1.181000000    -2.521000000
C     6.116000000    -1.074000000    -1.310000000
C     6.039000000    -2.104000000    -0.415000000
H     6.530000000    -3.039000000    -0.672000000
C     5.516000000    -2.011000000     0.868000000
O     5.561000000    -3.089000000     1.691000000
C     5.107000000    -3.052000000     2.934000000
C     3.886000000    -3.613000000     3.274000000
H     3.360000000    -4.119000000     2.469000000
C     5.921000000    -2.461000000     3.892000000
H     6.776000000    -1.881000000     3.554000000
C     5.381000000    -2.324000000     5.194000000
H     6.015000000    -1.821000000     5.919000000
C     4.134000000    -2.887000000     5.417000000
H     3.868000000    -2.949000000     6.469000000
C     3.369000000    -3.490000000     4.493000000
O     2.125000000    -4.082000000     4.815000000
C     0.961000000    -3.335000000     4.791000000
C    -0.216000000    -4.021000000     5.017000000
H    -0.221000000    -5.087000000     5.233000000
C    -1.433000000    -3.321000000     5.100000000
O    -2.555000000    -3.982000000     5.378000000
C    -3.676000000    -3.869000000     4.677000000
C    -3.755000000    -4.115000000     3.314000000
H    -2.851000000    -4.358000000     2.761000000
C    -4.814000000    -3.601000000     5.391000000
H    -4.750000000    -3.450000000     6.466000000
C    -6.074000000    -3.601000000     4.716000000
H    -6.999000000    -3.607000000     5.287000000
C    -6.140000000    -3.853000000     3.311000000
H    -7.086000000    -3.990000000     2.792000000
C    -4.973000000    -4.106000000     2.618000000
O    -4.991000000    -4.348000000     1.213000000
C    -4.932000000    -3.381000000     0.264000000
C    -5.260000000    -3.651000000    -1.068000000
H    -5.576000000    -4.635000000    -1.406000000
C    -5.127000000    -2.640000000    -2.077000000
O    -5.338000000    -2.949000000    -3.381000000
C    -4.862000000    -2.248000000    -4.463000000
C    -5.722000000    -1.753000000    -5.395000000
H    -6.792000000    -1.856000000    -5.235000000
C    -5.271000000    -1.160000000    -6.565000000
H    -6.004000000    -0.832000000    -7.298000000
C    -3.891000000    -1.116000000    -6.847000000
H    -3.459000000    -0.775000000    -7.784000000
C    -3.040000000    -1.771000000    -5.916000000
C    -3.523000000    -2.274000000    -4.741000000
H    -2.808000000    -2.848000000    -4.157000000
C    -0.802000000    -2.458000000    -1.940000000
H    -1.690000000    -3.035000000    -2.185000000
C    -0.873000000    -1.379000000    -1.098000000
H    -1.843000000    -1.067000000    -0.718000000
C     0.313000000    -0.676000000    -0.738000000
C     0.281000000     0.528000000     0.174000000
H     0.686000000     1.329000000    -0.448000000
H    -0.714000000     0.859000000     0.478000000
H     0.933000000     0.305000000     1.021000000
C     1.523000000    -1.079000000    -1.225000000
H     2.437000000    -0.580000000    -0.913000000
C     1.613000000    -2.190000000    -2.109000000
H     2.575000000    -2.434000000    -2.553000000
C     0.417000000    -2.834000000    -2.494000000
C     0.577000000    -4.084000000    -3.244000000
O     1.619000000    -4.573000000    -3.545000000
O    -0.419000000    -4.865000000    -3.262000000
O    -2.869000000    -4.600000000    -7.642000000
H    -3.574000000    -4.899000000    -7.067000000
H    -3.269000000    -4.560000000    -8.511000000
O     4.384000000    -4.097000000    -7.678000000
H     3.713000000    -4.321000000    -7.033000000
H     5.195000000    -4.451000000    -7.312000000
O    -0.039000000    -5.881000000    -0.577000000
H     0.062000000    -6.739000000    -0.989000000
H    -0.264000000    -5.294000000    -1.298000000
O    -0.972000000    -8.226000000    -4.685000000
H    -0.598000000    -7.383000000    -4.940000000
H    -1.367000000    -8.565000000    -5.489000000
O    -4.633000000    -5.711000000    -5.660000000
H    -4.432000000    -5.729000000    -4.724000000
H    -5.588000000    -5.670000000    -5.698000000
O    -2.263000000    -7.767000000    -0.936000000
H    -2.761000000    -8.583000000    -0.887000000
H    -2.342000000    -7.387000000    -0.061000000
O    -0.139000000    -4.700000000    -8.841000000
H    -0.519000000    -4.795000000    -7.968000000
H     0.608000000    -4.115000000    -8.715000000
O     1.589000000    -7.331000000    -3.706000000
H     1.291000000    -6.443000000    -3.506000000
H     0.903000000    -7.692000000    -4.267000000
O     3.204000000    -5.032000000    -0.068000000
H     3.651000000    -4.625000000    -0.810000000
H     2.706000000    -4.320000000     0.333000000
O     0.445000000    -5.964000000     2.049000000
H     0.079000000    -6.005000000     1.166000000
H     1.083000000    -5.252000000     2.012000000
O     3.380000000    -9.511000000    -3.456000000
H     3.969000000    -8.901000000    -3.010000000
H     2.584000000    -9.003000000    -3.614000000
O    -1.651000000    -3.913000000     0.550000000
H    -0.979000000    -4.591000000     0.484000000
H    -2.402000000    -4.273000000     0.078000000
O     1.207000000    -3.321000000     1.029000000
H     0.682000000    -2.892000000     1.704000000
H     0.813000000    -3.038000000     0.203000000
O     4.039000000    -7.246000000    -6.000000000
H     3.657000000    -6.388000000    -5.816000000
H     3.302000000    -7.855000000    -5.936000000
O     2.254000000    -4.965000000    -6.232000000
H     2.064000000    -4.811000000    -5.307000000
H     1.393000000    -5.011000000    -6.649000000
O     4.068000000    -4.569000000    -2.587000000
H     4.742000000    -4.943000000    -3.154000000
H     3.260000000    -4.641000000    -3.095000000
O     1.773000000    -8.044000000    -0.500000000
H     1.710000000    -7.242000000     0.017000000
H     2.351000000    -7.815000000    -1.228000000
O    -2.800000000    -6.247000000    -3.247000000
H    -1.968000000    -5.840000000    -3.486000000
H    -2.610000000    -6.724000000    -2.439000000
O    -0.688000000    -5.326000000    -6.026000000
H    -1.580000000    -5.030000000    -6.212000000
H    -0.528000000    -5.052000000    -5.123000000
