218
-1463.29578
C    -4.047000000    -1.428000000    -1.652000000
H    -3.889000000    -0.494000000    -2.185000000
C    -4.202000000    -1.470000000    -0.253000000
C    -4.289000000    -2.690000000     0.321000000
H    -4.294000000    -2.794000000     1.403000000
C    -4.143000000    -0.225000000     0.527000000
O    -4.962000000     0.889000000    -0.054000000
H    -3.085000000     0.071000000     0.464000000
O    -4.529000000    -0.483000000     1.916000000
C    -3.713000000    -0.024000000     2.938000000
C    -2.778000000    -0.913000000     3.324000000
H    -2.887000000    -1.955000000     3.035000000
C    -1.773000000    -0.523000000     4.151000000
O    -0.938000000    -1.449000000     4.604000000
C    -1.645000000     0.837000000     4.576000000
C    -0.579000000     1.178000000     5.563000000
H    -0.785000000     2.085000000     6.137000000
C     0.742000000     1.474000000     4.831000000
C     0.938000000     2.738000000     4.251000000
H     0.338000000     3.632000000     4.406000000
H    -0.673000000     0.457000000     6.378000000
C    -2.605000000     1.743000000     4.097000000
H    -2.436000000     2.775000000     4.394000000
C    -3.605000000     1.312000000     3.241000000
C    -4.517000000     2.340000000     2.545000000
H    -4.702000000     3.249000000     3.122000000
H    -5.487000000     1.850000000     2.431000000
C    -4.009000000     2.816000000     1.154000000
C    -3.154000000     3.983000000     1.120000000
H    -3.149000000     4.622000000     1.999000000
C    -4.319000000     2.083000000     0.000000000
C    -3.644000000     2.497000000    -1.184000000
H    -3.847000000     1.987000000    -2.122000000
C    -2.854000000     3.602000000    -1.246000000
O    -2.287000000     4.017000000    -2.431000000
C    -1.000000000     3.512000000    -2.737000000
C    -0.833000000     2.980000000    -4.190000000
C     0.424000000     2.444000000    -4.517000000
H     1.269000000     2.661000000    -3.869000000
C    -1.960000000     2.629000000    -4.926000000
H    -2.946000000     2.979000000    -4.629000000
O     0.019000000     4.565000000    -2.462000000
H    -0.876000000     2.643000000    -2.074000000
C    -2.553000000     4.352000000    -0.133000000
C    -1.531000000     5.470000000    -0.220000000
H    -1.773000000     6.174000000     0.579000000
H    -1.708000000     6.006000000    -1.155000000
C    -0.096000000     4.968000000    -0.091000000
C     0.456000000     4.880000000     1.165000000
H    -0.052000000     5.413000000     1.964000000
C     0.588000000     4.446000000    -1.220000000
C     1.861000000     3.967000000    -1.081000000
H     2.333000000     3.406000000    -1.885000000
C     2.402000000     3.794000000     0.188000000
O     3.617000000     3.153000000     0.338000000
C     3.537000000     1.799000000     0.750000000
C     4.475000000     0.998000000    -0.182000000
C     4.719000000     1.336000000    -1.549000000
H     4.462000000     2.306000000    -1.965000000
C     4.862000000    -0.262000000     0.301000000
H     4.756000000    -0.367000000     1.378000000
O     3.977000000     1.832000000     2.131000000
H     2.505000000     1.430000000     0.665000000
C     1.714000000     4.322000000     1.300000000
C     2.209000000     4.303000000     2.703000000
H     1.670000000     4.978000000     3.371000000
H     3.260000000     4.592000000     2.638000000
C     2.089000000     2.898000000     3.423000000
C     3.008000000     1.821000000     3.134000000
C     2.775000000     0.626000000     3.770000000
H     3.347000000    -0.231000000     3.423000000
C     1.621000000     0.404000000     4.557000000
O     1.384000000    -0.871000000     4.918000000
C     0.430000000    -1.535000000     4.095000000
H     0.489000000    -1.143000000     3.069000000
C     0.888000000    -2.947000000     3.988000000
C    -0.116000000    -3.955000000     3.659000000
H    -1.184000000    -3.768000000     3.581000000
C     2.241000000    -3.257000000     3.832000000
H     3.040000000    -2.525000000     3.911000000
C     2.649000000    -4.600000000     3.515000000
O     3.909000000    -4.978000000     3.258000000
C     1.636000000    -5.553000000     3.319000000
H     1.887000000    -6.582000000     3.076000000
C     0.342000000    -5.209000000     3.335000000
O    -0.514000000    -6.256000000     3.023000000
C    -1.848000000    -6.010000000     2.840000000
C    -2.344000000    -5.674000000     1.605000000
H    -1.662000000    -5.588000000     0.763000000
C    -2.758000000    -6.051000000     3.921000000
H    -2.380000000    -6.272000000     4.917000000
C    -4.074000000    -5.787000000     3.787000000
H    -4.734000000    -5.882000000     4.645000000
C    -4.506000000    -5.386000000     2.520000000
H    -5.555000000    -5.110000000     2.437000000
C    -3.709000000    -5.342000000     1.407000000
O    -4.181000000    -5.107000000     0.154000000
C    -4.179000000    -3.888000000    -0.414000000
C    -4.074000000    -3.810000000    -1.803000000
H    -4.050000000    -4.776000000    -2.300000000
C    -3.985000000    -2.575000000    -2.418000000
O    -3.697000000    -2.486000000    -3.765000000
C    -4.126000000    -1.638000000    -4.697000000
C    -3.374000000    -0.540000000    -5.102000000
H    -2.494000000    -0.224000000    -4.547000000
C    -5.190000000    -2.087000000    -5.477000000
H    -5.702000000    -3.019000000    -5.253000000
C    -5.628000000    -1.314000000    -6.580000000
H    -6.478000000    -1.605000000    -7.191000000
C    -4.939000000    -0.150000000    -6.947000000
H    -5.223000000     0.401000000    -7.840000000
C    -3.777000000     0.223000000    -6.207000000
O    -3.017000000     1.308000000    -6.638000000
C    -1.864000000     1.780000000    -6.035000000
C    -0.593000000     1.298000000    -6.395000000
H    -0.520000000     0.566000000    -7.195000000
C     0.536000000     1.589000000    -5.665000000
O     1.720000000     1.090000000    -6.009000000
C     2.964000000     1.591000000    -5.632000000
C     3.823000000     0.920000000    -4.792000000
H     3.475000000    -0.001000000    -4.333000000
C     3.505000000     2.584000000    -6.426000000
H     2.879000000     2.984000000    -7.219000000
C     4.834000000     3.011000000    -6.317000000
H     5.248000000     3.699000000    -7.050000000
C     5.550000000     2.498000000    -5.271000000
H     6.570000000     2.831000000    -5.095000000
C     5.073000000     1.401000000    -4.520000000
O     5.889000000     0.829000000    -3.631000000
C     5.418000000     0.456000000    -2.380000000
C     5.741000000    -0.775000000    -1.830000000
H     6.341000000    -1.471000000    -2.410000000
C     5.453000000    -1.185000000    -0.520000000
O     5.961000000    -2.349000000    -0.097000000
C     5.977000000    -2.869000000     1.128000000
C     7.045000000    -2.597000000     1.951000000
H     7.895000000    -2.129000000     1.461000000
C     7.087000000    -3.092000000     3.283000000
H     7.996000000    -2.889000000     3.844000000
C     5.988000000    -3.795000000     3.797000000
H     5.945000000    -4.119000000     4.834000000
C     4.918000000    -4.067000000     2.952000000
C     4.876000000    -3.562000000     1.636000000
H     4.077000000    -3.684000000     0.910000000
C     2.084000000    -1.612000000    -1.136000000
H     2.974000000    -1.498000000    -1.749000000
C     1.435000000    -0.430000000    -0.819000000
H     1.845000000     0.503000000    -1.198000000
C     0.235000000    -0.452000000    -0.044000000
C    -0.322000000     0.795000000     0.572000000
H     0.417000000     1.251000000     1.235000000
H    -0.541000000     1.473000000    -0.255000000
H    -1.177000000     0.562000000     1.211000000
C    -0.337000000    -1.701000000     0.142000000
H    -1.227000000    -1.609000000     0.759000000
C     0.263000000    -2.846000000    -0.460000000
H    -0.217000000    -3.818000000    -0.374000000
C     1.489000000    -2.804000000    -1.068000000
C     2.123000000    -4.043000000    -1.633000000
O     1.441000000    -5.044000000    -1.781000000
O     3.305000000    -4.024000000    -1.932000000
O     0.261000000    -7.155000000    -0.943000000
H     0.967000000    -6.535000000    -1.130000000
H    -0.339000000    -7.064000000    -1.683000000
O     4.395000000    -6.356000000    -1.269000000
H     4.009000000    -5.516000000    -1.516000000
H     4.808000000    -6.190000000    -0.421000000
O     3.885000000    -8.138000000    -3.609000000
H     3.163000000    -7.683000000    -4.042000000
H     4.170000000    -7.536000000    -2.921000000
O     7.606000000    -5.885000000    -1.091000000
H     7.004000000    -5.587000000    -1.773000000
H     7.051000000    -6.016000000    -0.323000000
O    -0.670000000    -4.289000000    -5.401000000
H    -0.872000000    -3.630000000    -6.065000000
H     0.230000000    -4.552000000    -5.592000000
O     2.531000000    -4.598000000    -5.832000000
H     3.285000000    -4.713000000    -5.254000000
H     2.850000000    -4.860000000    -6.696000000
O     4.398000000    -5.052000000    -4.092000000
H     4.229000000    -4.759000000    -3.197000000
H     5.337000000    -5.234000000    -4.112000000
O     1.656000000    -6.658000000    -4.183000000
H     1.610000000    -6.197000000    -3.346000000
H     1.672000000    -5.962000000    -4.840000000
O     2.823000000    -8.747000000    -0.554000000
H     3.477000000    -8.073000000    -0.736000000
H     1.984000000    -8.289000000    -0.615000000
O     5.867000000    -6.431000000     0.953000000
H     5.875000000    -7.350000000     1.222000000
H     5.455000000    -5.971000000     1.684000000
O    -0.375000000    -1.328000000    -3.342000000
H    -0.058000000    -1.167000000    -2.453000000
H    -0.742000000    -2.211000000    -3.310000000
O     6.836000000    -6.053000000    -4.416000000
H     7.160000000    -6.707000000    -5.035000000
H     6.976000000    -5.215000000    -4.857000000
O    -0.794000000    -5.547000000    -2.910000000
H    -1.012000000    -5.055000000    -3.702000000
H     0.013000000    -5.143000000    -2.591000000
O    -0.163000000    -8.933000000    -3.893000000
H     0.314000000    -9.761000000    -3.950000000
H     0.497000000    -8.294000000    -3.627000000
O    -3.450000000    -5.148000000    -5.589000000
H    -3.096000000    -6.031000000    -5.484000000
H    -2.783000000    -4.576000000    -5.209000000
O    -2.652000000    -7.259000000    -2.087000000
H    -2.022000000    -6.618000000    -2.416000000
H    -2.113000000    -7.945000000    -1.693000000
O     2.754000000    -9.138000000     2.272000000
H     2.093000000    -9.787000000     2.514000000
H     2.474000000    -8.819000000     1.414000000
O     1.239000000    -2.152000000    -5.720000000
H     1.933000000    -2.810000000    -5.674000000
H     1.207000000    -1.776000000    -4.841000000
O    -1.443000000    -9.486000000    -0.979000000
H    -0.625000000    -9.167000000    -0.597000000
H    -1.790000000   -10.095000000    -0.328000000
