218
-1495.21696
C     3.848000000     2.057000000     3.191000000
H     3.200000000     2.262000000     4.039000000
C     3.577000000     2.565000000     1.888000000
C     4.524000000     2.263000000     0.865000000
H     4.379000000     2.707000000    -0.117000000
C     2.373000000     3.375000000     1.728000000
O     1.885000000     3.992000000     2.954000000
H     1.602000000     2.660000000     1.405000000
O     2.586000000     4.385000000     0.666000000
C     1.623000000     4.523000000    -0.251000000
C     1.797000000     3.847000000    -1.450000000
H     2.755000000     3.334000000    -1.490000000
C     0.793000000     3.700000000    -2.354000000
O     0.976000000     3.064000000    -3.598000000
C    -0.466000000     4.279000000    -2.170000000
C    -1.617000000     4.232000000    -3.178000000
H    -2.275000000     5.043000000    -2.860000000
C    -2.424000000     2.907000000    -3.269000000
C    -3.533000000     2.731000000    -2.418000000
H    -3.743000000     3.464000000    -1.644000000
H    -1.167000000     4.447000000    -4.150000000
C    -0.635000000     4.867000000    -0.926000000
H    -1.627000000     5.205000000    -0.641000000
C     0.383000000     5.080000000    -0.006000000
C     0.044000000     5.509000000     1.405000000
H    -0.809000000     6.181000000     1.289000000
H     0.792000000     6.228000000     1.747000000
C    -0.412000000     4.482000000     2.435000000
C    -1.781000000     4.004000000     2.368000000
H    -2.535000000     4.431000000     1.713000000
C     0.524000000     3.851000000     3.242000000
C     0.150000000     2.767000000     4.066000000
H     0.998000000     2.227000000     4.479000000
C    -1.133000000     2.336000000     4.073000000
O    -1.472000000     1.096000000     4.687000000
C    -1.635000000    -0.055000000     3.815000000
C    -0.895000000    -1.308000000     4.245000000
C    -1.274000000    -2.552000000     3.620000000
H    -2.074000000    -2.615000000     2.887000000
C     0.151000000    -1.180000000     5.130000000
H     0.346000000    -0.301000000     5.740000000
O    -3.043000000    -0.366000000     3.611000000
H    -1.182000000     0.311000000     2.882000000
C    -2.101000000     2.964000000     3.270000000
C    -3.491000000     2.474000000     3.243000000
H    -4.137000000     3.353000000     3.185000000
H    -3.717000000     2.060000000     4.228000000
C    -3.781000000     1.414000000     2.206000000
C    -4.338000000     1.837000000     0.983000000
H    -4.583000000     2.894000000     0.925000000
C    -3.604000000     0.097000000     2.448000000
C    -3.937000000    -0.840000000     1.465000000
H    -3.819000000    -1.897000000     1.690000000
C    -4.561000000    -0.437000000     0.296000000
O    -4.880000000    -1.437000000    -0.650000000
C    -3.961000000    -1.574000000    -1.748000000
C    -3.697000000    -3.099000000    -2.061000000
C    -3.801000000    -4.115000000    -1.055000000
H    -4.277000000    -3.953000000    -0.092000000
C    -3.240000000    -3.424000000    -3.365000000
H    -3.256000000    -2.679000000    -4.156000000
O    -4.299000000    -0.870000000    -3.030000000
H    -2.979000000    -1.148000000    -1.494000000
C    -4.696000000     0.913000000     0.007000000
C    -5.271000000     1.365000000    -1.262000000
H    -5.827000000     2.302000000    -1.189000000
H    -5.973000000     0.581000000    -1.552000000
C    -4.212000000     1.505000000    -2.311000000
C    -3.758000000     0.437000000    -3.108000000
C    -2.636000000     0.572000000    -3.872000000
H    -2.217000000    -0.326000000    -4.318000000
C    -1.949000000     1.788000000    -3.952000000
O    -0.680000000     1.717000000    -4.527000000
C     0.430000000     1.721000000    -3.624000000
H     0.125000000     1.350000000    -2.634000000
C     1.474000000     0.710000000    -4.073000000
C     2.834000000     0.956000000    -4.058000000
H     3.214000000     1.926000000    -3.748000000
C     1.035000000    -0.573000000    -4.435000000
H    -0.033000000    -0.775000000    -4.477000000
C     2.004000000    -1.583000000    -4.768000000
O     1.663000000    -2.838000000    -5.242000000
C     3.366000000    -1.225000000    -4.829000000
H     4.098000000    -1.977000000    -5.110000000
C     3.779000000     0.051000000    -4.557000000
O     5.087000000     0.422000000    -4.617000000
C     5.689000000     1.054000000    -3.645000000
C     5.596000000     0.672000000    -2.237000000
H     4.980000000    -0.189000000    -1.991000000
C     6.437000000     2.222000000    -3.973000000
H     6.562000000     2.520000000    -5.011000000
C     7.019000000     2.991000000    -2.960000000
H     7.578000000     3.887000000    -3.219000000
C     7.042000000     2.530000000    -1.673000000
H     7.411000000     3.123000000    -0.840000000
C     6.344000000     1.326000000    -1.282000000
O     6.318000000     0.873000000     0.048000000
C     5.560000000     1.388000000     1.066000000
C     5.856000000     1.011000000     2.351000000
H     6.785000000     0.502000000     2.591000000
C     5.011000000     1.336000000     3.364000000
O     5.409000000     1.065000000     4.665000000
C     4.645000000     0.286000000     5.538000000
C     3.752000000    -0.702000000     5.154000000
H     3.668000000    -0.908000000     4.090000000
C     4.793000000     0.586000000     6.942000000
H     5.463000000     1.407000000     7.186000000
C     3.995000000    -0.106000000     7.850000000
H     4.077000000     0.058000000     8.921000000
C     3.115000000    -1.006000000     7.483000000
H     2.535000000    -1.572000000     8.207000000
C     2.971000000    -1.297000000     6.112000000
O     2.186000000    -2.397000000     5.894000000
C     0.986000000    -2.395000000     5.202000000
C     0.562000000    -3.620000000     4.690000000
H     1.140000000    -4.528000000     4.837000000
C    -0.587000000    -3.714000000     3.923000000
O    -0.790000000    -4.946000000     3.318000000
C    -2.040000000    -5.325000000     2.732000000
C    -2.127000000    -5.671000000     1.402000000
H    -1.188000000    -5.670000000     0.853000000
C    -3.075000000    -5.486000000     3.651000000
H    -2.918000000    -5.294000000     4.710000000
C    -4.304000000    -5.859000000     3.139000000
H    -5.145000000    -5.967000000     3.820000000
C    -4.406000000    -6.158000000     1.753000000
H    -5.338000000    -6.629000000     1.449000000
C    -3.351000000    -6.143000000     0.905000000
O    -3.438000000    -6.394000000    -0.467000000
C    -3.342000000    -5.374000000    -1.393000000
C    -2.907000000    -5.690000000    -2.709000000
H    -2.629000000    -6.706000000    -2.979000000
C    -2.946000000    -4.761000000    -3.713000000
O    -2.498000000    -5.140000000    -4.984000000
C    -1.659000000    -4.288000000    -5.675000000
C    -2.086000000    -3.687000000    -6.883000000
H    -3.115000000    -3.925000000    -7.141000000
C    -1.333000000    -2.633000000    -7.386000000
H    -1.747000000    -1.879000000    -8.050000000
C    -0.095000000    -2.295000000    -6.839000000
H     0.465000000    -1.462000000    -7.258000000
C     0.440000000    -3.082000000    -5.782000000
C    -0.301000000    -4.104000000    -5.226000000
H     0.035000000    -4.518000000    -4.279000000
C    -0.309000000    -1.965000000    -1.115000000
H    -0.539000000    -2.617000000    -1.953000000
C    -0.705000000    -0.608000000    -1.009000000
H    -1.314000000    -0.134000000    -1.775000000
C    -0.312000000     0.200000000     0.073000000
C    -0.712000000     1.664000000     0.145000000
H     0.142000000     2.294000000    -0.111000000
H    -1.450000000     1.996000000    -0.588000000
H    -1.071000000     1.962000000     1.132000000
C     0.624000000    -0.340000000     0.988000000
H     1.139000000     0.318000000     1.684000000
C     1.017000000    -1.690000000     0.943000000
H     1.790000000    -2.069000000     1.607000000
C     0.581000000    -2.518000000    -0.135000000
C     0.979000000    -3.999000000    -0.147000000
O     1.709000000    -4.363000000     0.768000000
O     0.626000000    -4.717000000    -1.014000000
O     3.571000000    -2.183000000    -1.707000000
H     3.261000000    -3.079000000    -1.840000000
H     2.926000000    -1.638000000    -2.157000000
O     6.190000000    -2.516000000    -2.750000000
H     5.516000000    -2.326000000    -2.097000000
H     6.912000000    -1.929000000    -2.527000000
O    -0.350000000    -9.471000000    -0.141000000
H     0.422000000    -8.961000000     0.106000000
H    -0.658000000    -9.062000000    -0.950000000
O     4.798000000    -4.626000000     4.950000000
H     4.947000000    -4.168000000     5.778000000
H     4.446000000    -3.955000000     4.365000000
O     6.398000000    -5.575000000    -3.466000000
H     6.245000000    -5.211000000    -2.595000000
H     7.175000000    -5.115000000    -3.785000000
O     3.544000000   -10.701000000    -2.038000000
H     3.350000000   -11.261000000    -1.287000000
H     3.005000000    -9.922000000    -1.903000000
O     2.388000000    -7.967000000    -3.265000000
H     3.205000000    -7.701000000    -2.842000000
H     2.633000000    -8.132000000    -4.176000000
O     3.783000000    -5.195000000    -4.857000000
H     4.492000000    -5.520000000    -4.301000000
H     3.240000000    -4.671000000    -4.269000000
O     4.393000000    -1.835000000     1.255000000
H     4.013000000    -1.876000000     0.377000000
H     5.014000000    -1.109000000     1.214000000
O     4.143000000    -7.145000000    -1.223000000
H     3.754000000    -6.763000000    -0.437000000
H     5.084000000    -7.142000000    -1.050000000
O     3.982000000    -5.489000000     1.280000000
H     3.103000000    -5.152000000     1.104000000
H     3.994000000    -5.645000000     2.224000000
O     4.431000000    -7.072000000     3.696000000
H     4.484000000    -6.218000000     4.125000000
H     5.331000000    -7.266000000     3.435000000
O     3.204000000    -3.263000000     3.159000000
H     3.777000000    -2.766000000     2.575000000
H     2.421000000    -3.436000000     2.637000000
O     2.908000000    -4.832000000    -2.338000000
H     3.395000000    -5.614000000    -2.076000000
H     2.047000000    -4.941000000    -1.936000000
O     6.038000000    -4.514000000    -0.392000000
H     5.299000000    -4.165000000     0.105000000
H     6.303000000    -5.297000000     0.092000000
O     0.456000000    -7.080000000     5.611000000
H    -0.137000000    -6.860000000     4.892000000
H     0.722000000    -7.983000000     5.433000000
O    -0.206000000    -7.321000000    -2.066000000
H    -0.154000000    -6.380000000    -1.902000000
H     0.613000000    -7.531000000    -2.515000000
O     1.288000000    -7.142000000     0.466000000
H     1.101000000    -6.282000000     0.840000000
H     1.113000000    -7.041000000    -0.470000000
O     3.051000000    -8.720000000     2.228000000
H     2.523000000    -8.213000000     1.611000000
H     3.508000000    -8.061000000     2.750000000
