218
-1434.71194
C     3.922000000     1.290000000     2.950000000
H     3.179000000     1.033000000     3.701000000
C     3.662000000     2.461000000     2.186000000
C     4.658000000     2.805000000     1.298000000
H     4.554000000     3.688000000     0.673000000
C     2.320000000     3.090000000     2.068000000
O     1.760000000     3.305000000     3.375000000
H     1.612000000     2.378000000     1.619000000
O     2.311000000     4.375000000     1.320000000
C     1.262000000     4.567000000     0.524000000
C     1.394000000     4.163000000    -0.747000000
H     2.383000000     3.885000000    -1.101000000
C     0.321000000     4.219000000    -1.657000000
O     0.598000000     3.690000000    -2.861000000
C    -0.877000000     4.717000000    -1.209000000
C    -2.137000000     4.713000000    -2.127000000
H    -2.852000000     5.480000000    -1.821000000
C    -2.747000000     3.400000000    -2.326000000
C    -3.813000000     3.113000000    -1.587000000
H    -4.174000000     3.805000000    -0.830000000
H    -1.836000000     5.048000000    -3.122000000
C    -1.048000000     5.023000000     0.138000000
H    -2.056000000     5.241000000     0.484000000
C     0.036000000     5.000000000     0.988000000
C    -0.344000000     5.246000000     2.504000000
H    -1.227000000     5.874000000     2.637000000
H     0.418000000     5.758000000     3.096000000
C    -0.654000000     3.895000000     3.158000000
C    -1.959000000     3.450000000     3.364000000
H    -2.687000000     4.170000000     2.998000000
C     0.442000000     3.087000000     3.527000000
C     0.174000000     1.839000000     4.097000000
H     0.996000000     1.163000000     4.318000000
C    -1.122000000     1.431000000     4.403000000
O    -1.252000000     0.122000000     4.758000000
C    -1.540000000    -0.899000000     3.747000000
C    -0.817000000    -2.147000000     4.119000000
C    -1.158000000    -3.360000000     3.538000000
H    -1.959000000    -3.511000000     2.820000000
C     0.367000000    -2.080000000     4.910000000
H     0.714000000    -1.157000000     5.368000000
O    -2.944000000    -1.163000000     3.784000000
H    -1.192000000    -0.657000000     2.732000000
C    -2.206000000     2.238000000     3.980000000
C    -3.663000000     1.703000000     4.049000000
H    -4.383000000     2.522000000     4.101000000
H    -3.820000000     1.159000000     4.982000000
C    -4.065000000     0.757000000     2.856000000
C    -4.522000000     1.366000000     1.651000000
H    -4.528000000     2.451000000     1.702000000
C    -3.779000000    -0.618000000     2.833000000
C    -3.977000000    -1.307000000     1.624000000
H    -3.605000000    -2.328000000     1.641000000
C    -4.519000000    -0.711000000     0.474000000
O    -4.678000000    -1.529000000    -0.657000000
C    -3.780000000    -1.344000000    -1.768000000
C    -3.391000000    -2.680000000    -2.409000000
C    -2.971000000    -3.708000000    -1.524000000
H    -2.949000000    -3.652000000    -0.438000000
C    -3.131000000    -2.787000000    -3.789000000
H    -3.192000000    -1.924000000    -4.447000000
O    -4.422000000    -0.363000000    -2.679000000
H    -2.829000000    -0.986000000    -1.346000000
C    -4.878000000     0.612000000     0.557000000
C    -5.446000000     1.324000000    -0.646000000
H    -6.065000000     2.157000000    -0.307000000
H    -6.196000000     0.770000000    -1.214000000
C    -4.361000000     1.842000000    -1.590000000
C    -3.925000000     0.912000000    -2.562000000
C    -2.918000000     1.264000000    -3.423000000
H    -2.473000000     0.538000000    -4.098000000
C    -2.193000000     2.449000000    -3.209000000
O    -1.060000000     2.570000000    -3.890000000
C     0.140000000     2.375000000    -3.147000000
H    -0.056000000     1.797000000    -2.232000000
C     1.136000000     1.577000000    -3.958000000
C     2.426000000     1.481000000    -3.492000000
H     2.737000000     2.156000000    -2.698000000
C     0.682000000     0.587000000    -4.840000000
H    -0.358000000     0.457000000    -5.128000000
C     1.615000000    -0.169000000    -5.577000000
O     1.219000000    -0.791000000    -6.727000000
C     2.925000000    -0.180000000    -5.102000000
H     3.630000000    -0.910000000    -5.491000000
C     3.355000000     0.552000000    -3.995000000
O     4.667000000     0.517000000    -3.589000000
C     5.429000000     1.571000000    -3.086000000
C     5.887000000     1.374000000    -1.794000000
H     5.555000000     0.531000000    -1.194000000
C     5.468000000     2.786000000    -3.765000000
H     5.090000000     2.852000000    -4.783000000
C     5.938000000     3.898000000    -3.117000000
H     5.795000000     4.891000000    -3.538000000
C     6.439000000     3.748000000    -1.799000000
H     6.916000000     4.641000000    -1.402000000
C     6.357000000     2.505000000    -1.146000000
O     6.763000000     2.341000000     0.145000000
C     5.904000000     2.057000000     1.207000000
C     6.065000000     0.907000000     1.963000000
H     6.944000000     0.269000000     1.920000000
C     5.036000000     0.467000000     2.783000000
O     5.452000000    -0.515000000     3.701000000
C     4.857000000    -0.960000000     4.903000000
C     3.719000000    -1.811000000     4.840000000
H     3.320000000    -2.161000000     3.891000000
C     5.551000000    -0.820000000     6.105000000
H     6.466000000    -0.236000000     6.155000000
C     5.086000000    -1.425000000     7.304000000
H     5.608000000    -1.381000000     8.257000000
C     3.906000000    -2.138000000     7.197000000
H     3.453000000    -2.623000000     8.058000000
C     3.247000000    -2.355000000     5.985000000
O     2.183000000    -3.242000000     6.036000000
C     1.150000000    -3.212000000     5.116000000
C     0.758000000    -4.420000000     4.600000000
H     1.414000000    -5.278000000     4.723000000
C    -0.448000000    -4.489000000     3.888000000
O    -0.616000000    -5.735000000     3.351000000
C    -1.521000000    -5.991000000     2.300000000
C    -1.149000000    -5.676000000     0.986000000
H    -0.234000000    -5.160000000     0.704000000
C    -2.755000000    -6.519000000     2.621000000
H    -2.914000000    -6.785000000     3.663000000
C    -3.670000000    -6.830000000     1.602000000
H    -4.566000000    -7.404000000     1.822000000
C    -3.272000000    -6.703000000     0.254000000
H    -3.871000000    -7.148000000    -0.536000000
C    -2.045000000    -6.075000000    -0.030000000
O    -1.729000000    -5.819000000    -1.314000000
C    -2.355000000    -4.877000000    -2.102000000
C    -2.207000000    -5.015000000    -3.516000000
H    -1.743000000    -5.931000000    -3.874000000
C    -2.568000000    -3.970000000    -4.360000000
O    -2.217000000    -4.166000000    -5.694000000
C    -1.716000000    -3.183000000    -6.481000000
C    -2.308000000    -2.903000000    -7.704000000
H    -3.168000000    -3.452000000    -8.079000000
C    -1.793000000    -1.939000000    -8.537000000
H    -2.326000000    -1.701000000    -9.454000000
C    -0.619000000    -1.268000000    -8.160000000
H    -0.162000000    -0.499000000    -8.777000000
C     0.014000000    -1.554000000    -6.965000000
C    -0.551000000    -2.480000000    -6.055000000
H    -0.083000000    -2.707000000    -5.101000000
C     0.707000000    -2.831000000    -1.892000000
H     0.599000000    -3.228000000    -2.898000000
C    -0.019000000    -1.713000000    -1.428000000
H    -0.803000000    -1.346000000    -2.086000000
C     0.174000000    -1.272000000    -0.170000000
C    -0.442000000     0.041000000     0.320000000
H     0.001000000     0.392000000     1.254000000
H    -0.459000000     0.735000000    -0.523000000
H    -1.492000000    -0.052000000     0.607000000
C     1.224000000    -1.764000000     0.535000000
H     1.585000000    -1.329000000     1.464000000
C     1.852000000    -2.948000000     0.203000000
H     2.570000000    -3.523000000     0.782000000
C     1.626000000    -3.433000000    -1.073000000
C     2.255000000    -4.633000000    -1.552000000
O     2.194000000    -5.578000000    -0.782000000
O     2.525000000    -4.803000000    -2.701000000
O     7.175000000    -3.209000000    -3.056000000
H     6.834000000    -2.523000000    -3.630000000
H     7.696000000    -3.767000000    -3.633000000
O     4.989000000    -4.080000000     2.561000000
H     5.224000000    -4.725000000     1.894000000
H     4.844000000    -4.598000000     3.353000000
O     2.773000000    -9.009000000    -6.208000000
H     2.153000000    -8.632000000    -5.583000000
H     3.164000000    -9.748000000    -5.742000000
O     1.256000000    -4.010000000    -8.255000000
H     1.549000000    -4.299000000    -7.390000000
H     0.690000000    -3.260000000    -8.077000000
O     6.930000000    -7.029000000    -5.221000000
H     6.323000000    -7.279000000    -5.918000000
H     6.426000000    -7.137000000    -4.415000000
O     2.475000000   -10.267000000    -0.078000000
H     3.201000000   -10.670000000    -0.556000000
H     1.692000000   -10.681000000    -0.439000000
O     6.681000000    -6.952000000     2.778000000
H     6.412000000    -6.555000000     1.949000000
H     7.463000000    -7.458000000     2.558000000
O     4.787000000    -9.669000000    -3.078000000
H     4.026000000   -10.103000000    -2.694000000
H     4.452000000    -8.829000000    -3.392000000
O     5.232000000    -5.158000000    -1.846000000
H     4.368000000    -4.761000000    -1.956000000
H     5.835000000    -4.532000000    -2.246000000
O     2.772000000    -7.721000000     0.774000000
H     2.591000000    -8.492000000     0.236000000
H     2.508000000    -6.980000000     0.228000000
O     0.690000000    -7.571000000    -1.789000000
H    -0.195000000    -7.211000000    -1.724000000
H     1.256000000    -6.876000000    -1.453000000
O     5.280000000    -6.065000000     0.719000000
H     5.380000000    -5.806000000    -0.197000000
H     4.434000000    -6.513000000     0.751000000
O     8.048000000    -2.072000000    -0.633000000
H     7.647000000    -2.341000000    -1.460000000
H     8.857000000    -1.630000000    -0.892000000
O     0.471000000    -7.292000000    -4.581000000
H    -0.357000000    -7.730000000    -4.776000000
H     0.599000000    -7.430000000    -3.642000000
O     3.437000000    -7.674000000     3.400000000
H     3.401000000    -7.474000000     2.465000000
H     3.812000000    -8.554000000     3.442000000
O     3.874000000    -7.010000000    -3.534000000
H     3.204000000    -6.326000000    -3.505000000
H     4.443000000    -6.820000000    -2.789000000
O     0.934000000    -9.981000000    -3.372000000
H     0.828000000    -9.181000000    -2.859000000
H     1.652000000   -10.448000000    -2.944000000
O     1.605000000    -5.049000000    -5.671000000
H     1.112000000    -5.724000000    -5.205000000
H     2.350000000    -4.859000000    -5.100000000
O     6.430000000    -1.319000000    -4.901000000
H     5.767000000    -0.833000000    -4.411000000
H     6.236000000    -1.129000000    -5.819000000
