218
-1473.59447
C     3.880000000     1.481000000     2.926000000
H     3.201000000     1.139000000     3.703000000
C     3.523000000     2.457000000     2.000000000
C     4.467000000     2.859000000     1.025000000
H     4.179000000     3.613000000     0.297000000
C     2.077000000     3.025000000     1.974000000
O     1.539000000     3.198000000     3.333000000
H     1.460000000     2.274000000     1.460000000
O     2.039000000     4.355000000     1.291000000
C     1.015000000     4.558000000     0.351000000
C     1.303000000     4.344000000    -0.970000000
H     2.335000000     4.132000000    -1.237000000
C     0.258000000     4.255000000    -1.876000000
O     0.526000000     3.694000000    -3.156000000
C    -1.041000000     4.626000000    -1.457000000
C    -2.207000000     4.422000000    -2.468000000
H    -2.964000000     5.181000000    -2.258000000
C    -2.802000000     3.099000000    -2.563000000
C    -3.848000000     2.673000000    -1.773000000
H    -4.338000000     3.407000000    -1.139000000
H    -1.810000000     4.666000000    -3.455000000
C    -1.294000000     4.934000000    -0.102000000
H    -2.280000000     5.290000000     0.187000000
C    -0.291000000     4.863000000     0.795000000
C    -0.549000000     5.090000000     2.257000000
H    -1.484000000     5.655000000     2.260000000
H     0.179000000     5.831000000     2.593000000
C    -0.818000000     3.830000000     3.040000000
C    -2.159000000     3.383000000     3.152000000
H    -2.972000000     4.047000000     2.869000000
C     0.179000000     3.014000000     3.573000000
C    -0.116000000     1.801000000     4.134000000
H     0.641000000     1.119000000     4.513000000
C    -1.454000000     1.348000000     4.210000000
O    -1.651000000     0.127000000     4.706000000
C    -1.835000000    -0.940000000     3.823000000
C    -0.957000000    -2.103000000     4.247000000
C    -1.433000000    -3.429000000     4.006000000
H    -2.354000000    -3.564000000     3.445000000
C     0.258000000    -1.957000000     4.925000000
H     0.592000000    -0.930000000     5.054000000
O    -3.243000000    -1.258000000     3.721000000
H    -1.488000000    -0.567000000     2.848000000
C    -2.447000000     2.102000000     3.709000000
C    -3.906000000     1.609000000     3.702000000
H    -4.597000000     2.442000000     3.851000000
H    -4.017000000     1.031000000     4.621000000
C    -4.274000000     0.614000000     2.581000000
C    -4.827000000     1.156000000     1.386000000
H    -4.865000000     2.229000000     1.217000000
C    -3.935000000    -0.746000000     2.674000000
C    -4.249000000    -1.601000000     1.666000000
H    -3.824000000    -2.601000000     1.677000000
C    -4.755000000    -1.045000000     0.460000000
O    -4.780000000    -1.897000000    -0.669000000
C    -3.730000000    -1.664000000    -1.626000000
C    -3.105000000    -2.973000000    -2.136000000
C    -2.824000000    -3.993000000    -1.180000000
H    -3.004000000    -3.875000000    -0.115000000
C    -2.773000000    -3.204000000    -3.457000000
H    -2.875000000    -2.397000000    -4.178000000
O    -4.182000000    -0.819000000    -2.783000000
H    -3.006000000    -1.112000000    -1.008000000
C    -5.065000000     0.305000000     0.321000000
C    -5.519000000     0.881000000    -1.001000000
H    -6.176000000     1.727000000    -0.789000000
H    -6.076000000     0.155000000    -1.598000000
C    -4.383000000     1.364000000    -1.827000000
C    -3.760000000     0.422000000    -2.731000000
C    -2.766000000     0.871000000    -3.538000000
H    -2.479000000     0.202000000    -4.346000000
C    -2.211000000     2.137000000    -3.420000000
O    -1.057000000     2.337000000    -4.148000000
C     0.231000000     2.342000000    -3.487000000
H     0.193000000     1.772000000    -2.547000000
C     1.370000000     1.625000000    -4.227000000
C     2.652000000     2.021000000    -4.043000000
H     2.869000000     2.852000000    -3.377000000
C     1.100000000     0.582000000    -5.069000000
H     0.043000000     0.396000000    -5.244000000
C     2.117000000    -0.144000000    -5.651000000
O     1.736000000    -1.201000000    -6.557000000
C     3.424000000     0.265000000    -5.460000000
H     4.219000000    -0.317000000    -5.921000000
C     3.746000000     1.310000000    -4.596000000
O     4.988000000     1.499000000    -4.224000000
C     5.453000000     2.529000000    -3.468000000
C     5.766000000     2.115000000    -2.156000000
H     5.556000000     1.093000000    -1.854000000
C     5.762000000     3.816000000    -3.899000000
H     5.540000000     4.127000000    -4.917000000
C     6.479000000     4.661000000    -2.975000000
H     6.831000000     5.625000000    -3.334000000
C     6.795000000     4.283000000    -1.680000000
H     7.347000000     4.938000000    -1.010000000
C     6.403000000     3.005000000    -1.265000000
O     6.663000000     2.536000000     0.012000000
C     5.713000000     2.149000000     0.898000000
C     6.015000000     1.089000000     1.808000000
H     6.960000000     0.574000000     1.656000000
C     5.096000000     0.810000000     2.805000000
O     5.508000000    -0.253000000     3.652000000
C     4.866000000    -0.684000000     4.775000000
C     3.802000000    -1.576000000     4.819000000
H     3.390000000    -1.870000000     3.857000000
C     5.355000000    -0.174000000     5.955000000
H     6.196000000     0.507000000     5.854000000
C     4.798000000    -0.553000000     7.158000000
H     5.161000000    -0.089000000     8.071000000
C     3.685000000    -1.418000000     7.150000000
H     3.263000000    -1.802000000     8.076000000
C     3.166000000    -1.947000000     5.983000000
O     2.179000000    -2.930000000     6.135000000
C     0.996000000    -3.038000000     5.442000000
C     0.471000000    -4.322000000     5.157000000
H     0.907000000    -5.240000000     5.541000000
C    -0.676000000    -4.543000000     4.370000000
O    -1.200000000    -5.823000000     4.130000000
C    -1.887000000    -6.134000000     2.999000000
C    -1.398000000    -5.897000000     1.735000000
H    -0.429000000    -5.406000000     1.690000000
C    -3.104000000    -6.715000000     3.164000000
H    -3.546000000    -7.018000000     4.110000000
C    -3.822000000    -7.173000000     2.028000000
H    -4.820000000    -7.546000000     2.243000000
C    -3.322000000    -6.830000000     0.710000000
H    -3.852000000    -7.128000000    -0.191000000
C    -2.102000000    -6.243000000     0.583000000
O    -1.579000000    -5.985000000    -0.639000000
C    -2.045000000    -5.091000000    -1.562000000
C    -1.678000000    -5.259000000    -2.863000000
H    -1.077000000    -6.140000000    -3.072000000
C    -2.037000000    -4.349000000    -3.854000000
O    -1.606000000    -4.464000000    -5.144000000
C    -1.138000000    -3.434000000    -5.950000000
C    -1.788000000    -3.356000000    -7.161000000
H    -2.634000000    -3.998000000    -7.393000000
C    -1.324000000    -2.497000000    -8.191000000
H    -1.817000000    -2.425000000    -9.158000000
C    -0.074000000    -1.866000000    -7.962000000
H     0.389000000    -1.317000000    -8.779000000
C     0.503000000    -1.833000000    -6.741000000
C    -0.064000000    -2.589000000    -5.707000000
H     0.503000000    -2.605000000    -4.780000000
C     0.284000000    -2.488000000    -1.314000000
H     0.265000000    -3.088000000    -2.220000000
C    -0.285000000    -1.211000000    -1.227000000
H    -0.755000000    -0.846000000    -2.136000000
C    -0.038000000    -0.531000000    -0.034000000
C    -0.713000000     0.820000000     0.096000000
H    -0.804000000     1.251000000     1.096000000
H    -0.199000000     1.557000000    -0.525000000
H    -1.734000000     0.736000000    -0.281000000
C     0.584000000    -1.075000000     1.063000000
H     0.743000000    -0.477000000     1.957000000
C     1.019000000    -2.383000000     1.005000000
H     1.349000000    -2.944000000     1.877000000
C     0.914000000    -3.100000000    -0.203000000
C     1.511000000    -4.454000000    -0.338000000
O     1.943000000    -5.035000000     0.644000000
O     1.884000000    -4.860000000    -1.419000000
O     5.024000000    -4.379000000     4.388000000
H     4.680000000    -4.749000000     3.575000000
H     5.401000000    -3.538000000     4.129000000
O     5.348000000    -9.139000000     1.178000000
H     5.088000000    -9.511000000     0.336000000
H     6.004000000    -9.748000000     1.517000000
O     2.945000000    -3.855000000    -6.804000000
H     2.643000000    -3.391000000    -6.023000000
H     2.757000000    -4.776000000    -6.622000000
O    -2.124000000    -9.688000000    -1.241000000
H    -2.695000000    -9.416000000    -1.960000000
H    -1.401000000    -9.060000000    -1.258000000
O     1.205000000    -9.150000000     4.421000000
H     1.987000000    -8.636000000     4.220000000
H     1.218000000    -9.864000000     3.784000000
O     5.668000000    -7.385000000    -3.170000000
H     5.796000000    -7.441000000    -4.116000000
H     5.384000000    -6.483000000    -3.019000000
O     2.765000000    -8.505000000    -2.856000000
H     3.629000000    -8.856000000    -2.641000000
H     2.597000000    -7.851000000    -2.178000000
O     1.937000000   -10.460000000    -0.157000000
H     2.134000000    -9.769000000    -0.790000000
H     1.075000000   -10.784000000    -0.418000000
O     7.034000000    -3.769000000    -0.100000000
H     6.218000000    -3.861000000    -0.592000000
H     7.651000000    -4.346000000    -0.549000000
O     5.078000000    -9.659000000    -2.011000000
H     4.959000000   -10.178000000    -2.807000000
H     5.376000000    -8.805000000    -2.324000000
O     4.749000000    -4.806000000    -4.255000000
H     3.877000000    -5.073000000    -4.548000000
H     5.082000000    -4.255000000    -4.963000000
O     4.089000000    -5.680000000     2.228000000
H     4.676000000    -5.391000000     1.529000000
H     3.212000000    -5.476000000     1.903000000
O    -0.100000000    -8.031000000    -1.369000000
H    -0.466000000    -7.151000000    -1.276000000
H     0.711000000    -8.008000000    -0.863000000
O     6.975000000    -2.582000000     2.497000000
H     7.225000000    -2.989000000     1.668000000
H     6.417000000    -1.847000000     2.245000000
O     4.535000000    -4.144000000    -1.198000000
H     4.375000000    -4.076000000    -2.139000000
H     3.749000000    -4.565000000    -0.851000000
O     3.796000000    -8.323000000     3.346000000
H     3.901000000    -7.411000000     3.076000000
H     4.282000000    -8.825000000     2.691000000
O     2.324000000    -7.532000000    -0.235000000
H     2.466000000    -7.930000000     0.624000000
H     2.307000000    -6.590000000    -0.062000000
O     0.296000000    -9.798000000    -3.879000000
H    -0.065000000    -9.136000000    -3.289000000
H     1.206000000    -9.896000000    -3.600000000
O     1.920000000    -4.771000000    -4.236000000
H     1.297000000    -5.393000000    -4.611000000
H     1.687000000    -4.728000000    -3.309000000
