218
-1479.89765
C     4.130000000     0.811000000     2.642000000
H     3.390000000     0.411000000     3.331000000
C     3.854000000     1.923000000     1.806000000
C     4.816000000     2.339000000     0.839000000
H     4.616000000     3.208000000     0.217000000
C     2.478000000     2.622000000     1.909000000
O     2.070000000     2.689000000     3.260000000
H     1.760000000     1.976000000     1.382000000
O     2.465000000     3.943000000     1.342000000
C     1.275000000     4.303000000     0.707000000
C     1.445000000     4.164000000    -0.690000000
H     2.426000000     3.912000000    -1.085000000
C     0.341000000     4.300000000    -1.446000000
O     0.508000000     3.985000000    -2.818000000
C    -0.898000000     4.698000000    -0.932000000
C    -2.069000000     4.778000000    -1.802000000
H    -2.813000000     5.412000000    -1.316000000
C    -2.793000000     3.447000000    -2.182000000
C    -3.800000000     3.023000000    -1.323000000
H    -4.097000000     3.780000000    -0.602000000
H    -1.813000000     5.295000000    -2.729000000
C    -1.002000000     4.898000000     0.446000000
H    -1.992000000     5.011000000     0.881000000
C     0.078000000     4.638000000     1.279000000
C    -0.053000000     4.769000000     2.744000000
H    -0.852000000     5.482000000     2.956000000
H     0.849000000     5.135000000     3.239000000
C    -0.323000000     3.364000000     3.286000000
C    -1.632000000     2.935000000     3.493000000
H    -2.442000000     3.495000000     3.032000000
C     0.733000000     2.458000000     3.589000000
C     0.448000000     1.306000000     4.277000000
H     1.290000000     0.643000000     4.458000000
C    -0.857000000     0.884000000     4.520000000
O    -1.075000000    -0.342000000     4.975000000
C    -1.302000000    -1.358000000     3.903000000
C    -0.537000000    -2.665000000     4.127000000
C    -0.985000000    -3.860000000     3.583000000
H    -1.983000000    -3.876000000     3.152000000
C     0.730000000    -2.608000000     4.733000000
H     1.136000000    -1.651000000     5.048000000
O    -2.686000000    -1.624000000     3.720000000
H    -1.083000000    -0.968000000     2.898000000
C    -1.882000000     1.757000000     4.172000000
C    -3.345000000     1.305000000     4.371000000
H    -4.031000000     2.146000000     4.492000000
H    -3.473000000     0.692000000     5.266000000
C    -3.722000000     0.539000000     3.070000000
C    -4.438000000     1.223000000     2.044000000
H    -4.744000000     2.259000000     2.172000000
C    -3.387000000    -0.836000000     2.838000000
C    -3.709000000    -1.480000000     1.635000000
H    -3.401000000    -2.498000000     1.412000000
C    -4.438000000    -0.784000000     0.660000000
O    -4.659000000    -1.336000000    -0.563000000
C    -3.688000000    -1.253000000    -1.624000000
C    -3.339000000    -2.587000000    -2.224000000
C    -3.236000000    -3.751000000    -1.461000000
H    -3.540000000    -3.680000000    -0.420000000
C    -2.896000000    -2.611000000    -3.569000000
H    -2.917000000    -1.672000000    -4.116000000
O    -4.255000000    -0.318000000    -2.601000000
H    -2.694000000    -0.972000000    -1.246000000
C    -4.762000000     0.577000000     0.868000000
C    -5.286000000     1.394000000    -0.315000000
H    -5.934000000     2.206000000     0.024000000
H    -6.051000000     0.742000000    -0.742000000
C    -4.346000000     1.749000000    -1.431000000
C    -3.867000000     0.935000000    -2.465000000
C    -2.811000000     1.376000000    -3.328000000
H    -2.375000000     0.710000000    -4.068000000
C    -2.308000000     2.639000000    -3.195000000
O    -1.232000000     3.045000000    -3.905000000
C    -0.049000000     2.709000000    -3.194000000
H    -0.254000000     2.181000000    -2.251000000
C     0.944000000     2.038000000    -4.092000000
C     2.257000000     2.112000000    -3.808000000
H     2.545000000     2.809000000    -3.025000000
C     0.560000000     1.170000000    -5.085000000
H    -0.498000000     1.209000000    -5.332000000
C     1.453000000     0.357000000    -5.767000000
O     1.025000000    -0.400000000    -6.838000000
C     2.781000000     0.372000000    -5.451000000
H     3.439000000    -0.195000000    -6.105000000
C     3.231000000     1.235000000    -4.484000000
O     4.579000000     1.239000000    -4.323000000
C     5.311000000     2.166000000    -3.570000000
C     5.781000000     1.758000000    -2.325000000
H     5.409000000     0.836000000    -1.886000000
C     5.680000000     3.477000000    -4.012000000
H     5.390000000     3.914000000    -4.965000000
C     6.528000000     4.317000000    -3.225000000
H     6.816000000     5.310000000    -3.559000000
C     6.947000000     3.755000000    -1.978000000
H     7.507000000     4.384000000    -1.290000000
C     6.643000000     2.503000000    -1.539000000
O     6.919000000     1.975000000    -0.232000000
C     5.930000000     1.559000000     0.655000000
C     6.258000000     0.527000000     1.513000000
H     7.211000000     0.005000000     1.474000000
C     5.314000000     0.084000000     2.477000000
O     5.594000000    -0.996000000     3.343000000
C     4.875000000    -1.371000000     4.455000000
C     3.974000000    -2.381000000     4.384000000
H     3.736000000    -2.969000000     3.501000000
C     5.179000000    -0.706000000     5.633000000
H     5.959000000     0.051000000     5.624000000
C     4.550000000    -1.094000000     6.819000000
H     4.731000000    -0.489000000     7.704000000
C     3.748000000    -2.217000000     6.788000000
H     3.207000000    -2.626000000     7.637000000
C     3.463000000    -2.817000000     5.580000000
O     2.628000000    -3.919000000     5.554000000
C     1.497000000    -3.842000000     4.831000000
C     0.975000000    -5.036000000     4.332000000
H     1.495000000    -5.971000000     4.522000000
C    -0.205000000    -5.012000000     3.618000000
O    -0.710000000    -6.182000000     3.060000000
C    -1.920000000    -6.194000000     2.323000000
C    -1.773000000    -6.138000000     0.949000000
H    -0.799000000    -6.186000000     0.470000000
C    -3.112000000    -6.105000000     2.932000000
H    -3.154000000    -6.223000000     4.012000000
C    -4.260000000    -5.993000000     2.134000000
H    -5.208000000    -5.878000000     2.655000000
C    -4.160000000    -6.089000000     0.724000000
H    -5.059000000    -6.007000000     0.118000000
C    -2.932000000    -6.131000000     0.127000000
O    -2.780000000    -6.136000000    -1.232000000
C    -2.750000000    -4.955000000    -1.987000000
C    -2.482000000    -4.981000000    -3.388000000
H    -2.215000000    -5.938000000    -3.827000000
C    -2.359000000    -3.794000000    -4.166000000
O    -2.012000000    -3.768000000    -5.518000000
C    -1.788000000    -2.558000000    -6.219000000
C    -2.739000000    -2.071000000    -7.145000000
H    -3.676000000    -2.607000000    -7.280000000
C    -2.448000000    -0.951000000    -7.942000000
H    -3.165000000    -0.526000000    -8.640000000
C    -1.226000000    -0.359000000    -7.777000000
H    -1.008000000     0.564000000    -8.308000000
C    -0.204000000    -0.910000000    -6.986000000
C    -0.488000000    -2.037000000    -6.240000000
H     0.311000000    -2.398000000    -5.597000000
C     0.305000000    -2.098000000    -2.184000000
H     0.262000000    -2.368000000    -3.236000000
C    -0.235000000    -0.865000000    -1.757000000
H    -0.569000000    -0.199000000    -2.548000000
C    -0.269000000    -0.570000000    -0.393000000
C    -0.751000000     0.786000000     0.112000000
H    -0.957000000     0.752000000     1.184000000
H    -0.029000000     1.567000000    -0.135000000
H    -1.620000000     1.083000000    -0.478000000
C     0.197000000    -1.479000000     0.551000000
H     0.174000000    -1.174000000     1.594000000
C     0.820000000    -2.672000000     0.104000000
H     1.274000000    -3.321000000     0.847000000
C     0.876000000    -2.966000000    -1.247000000
C     1.422000000    -4.260000000    -1.669000000
O     1.690000000    -5.060000000    -0.795000000
O     1.502000000    -4.580000000    -2.853000000
O     5.825000000    -3.715000000     0.864000000
H     5.261000000    -3.180000000     0.306000000
H     5.510000000    -4.610000000     0.735000000
O     4.232000000    -9.103000000    -5.330000000
H     3.429000000    -9.093000000    -4.810000000
H     4.103000000    -9.814000000    -5.957000000
O     1.781000000    -3.966000000    -8.336000000
H     1.702000000    -4.438000000    -7.506000000
H     0.943000000    -3.514000000    -8.434000000
O    -0.030000000    -9.043000000     2.165000000
H     0.553000000    -8.474000000     1.663000000
H     0.050000000    -8.732000000     3.067000000
O     6.556000000    -6.077000000    -4.176000000
H     5.642000000    -6.018000000    -3.899000000
H     7.024000000    -5.490000000    -3.583000000
O     3.493000000    -9.224000000    -0.630000000
H     3.896000000    -9.192000000    -1.498000000
H     2.639000000    -9.630000000    -0.778000000
O     5.666000000    -6.727000000     1.625000000
H     5.143000000    -6.488000000     0.860000000
H     6.540000000    -6.900000000     1.274000000
O     5.177000000    -8.779000000    -2.857000000
H     4.745000000    -7.948000000    -3.053000000
H     5.209000000    -9.237000000    -3.697000000
O     4.880000000    -1.916000000    -1.490000000
H     4.339000000    -2.608000000    -1.870000000
H     5.513000000    -1.702000000    -2.176000000
O     1.794000000    -7.055000000     0.990000000
H     2.323000000    -7.586000000     0.395000000
H     1.645000000    -6.238000000     0.514000000
O    -0.018000000    -6.998000000    -2.628000000
H    -0.713000000    -6.871000000    -1.982000000
H     0.379000000    -6.133000000    -2.725000000
O     4.466000000    -5.656000000    -0.537000000
H     4.640000000    -5.957000000    -1.429000000
H     3.536000000    -5.430000000    -0.538000000
O     3.458000000    -7.268000000     2.925000000
H     2.880000000    -6.977000000     2.221000000
H     4.339000000    -7.060000000     2.614000000
O     3.948000000    -5.804000000    -3.628000000
H     3.271000000    -5.390000000    -3.094000000
H     3.487000000    -6.101000000    -4.412000000
O     1.150000000   -10.810000000    -0.931000000
H     0.682000000   -11.601000000    -0.665000000
H     0.461000000   -10.167000000    -1.096000000
O    -0.987000000    -7.406000000    -5.475000000
H    -0.165000000    -7.601000000    -5.924000000
H    -0.754000000    -7.381000000    -4.547000000
O     1.812000000    -9.075000000    -4.049000000
H     1.361000000    -8.327000000    -3.657000000
H     1.154000000    -9.770000000    -4.064000000
O     1.302000000    -5.013000000    -5.577000000
H     0.641000000    -5.705000000    -5.561000000
H     1.303000000    -4.662000000    -4.687000000
O     6.197000000    -1.526000000    -4.006000000
H     5.579000000    -0.801000000    -4.098000000
H     6.328000000    -1.844000000    -4.899000000
