218
-1451.12862
C     3.755000000     1.512000000     2.725000000
H     2.914000000     1.069000000     3.253000000
C     3.478000000     2.666000000     1.965000000
C     4.411000000     3.087000000     0.983000000
H     4.205000000     3.988000000     0.410000000
C     2.090000000     3.250000000     1.998000000
O     1.528000000     3.498000000     3.304000000
H     1.375000000     2.533000000     1.567000000
O     2.008000000     4.554000000     1.346000000
C     0.996000000     4.801000000     0.450000000
C     1.246000000     4.364000000    -0.824000000
H     2.238000000     4.185000000    -1.231000000
C     0.229000000     4.174000000    -1.750000000
O     0.624000000     3.603000000    -2.872000000
C    -1.076000000     4.514000000    -1.429000000
C    -2.224000000     4.346000000    -2.405000000
H    -3.053000000     5.012000000    -2.157000000
C    -2.676000000     2.927000000    -2.471000000
C    -3.693000000     2.550000000    -1.551000000
H    -4.129000000     3.309000000    -0.907000000
H    -1.946000000     4.705000000    -3.398000000
C    -1.365000000     4.863000000    -0.088000000
H    -2.382000000     5.116000000     0.200000000
C    -0.321000000     4.993000000     0.842000000
C    -0.547000000     5.217000000     2.291000000
H    -1.463000000     5.747000000     2.558000000
H     0.234000000     5.841000000     2.731000000
C    -0.808000000     3.913000000     2.937000000
C    -2.112000000     3.387000000     2.929000000
H    -2.953000000     3.953000000     2.538000000
C     0.236000000     3.100000000     3.421000000
C     0.005000000     1.869000000     4.039000000
H     0.814000000     1.287000000     4.474000000
C    -1.273000000     1.396000000     4.000000000
O    -1.434000000     0.101000000     4.508000000
C    -1.594000000    -0.871000000     3.586000000
C    -0.671000000    -2.042000000     3.886000000
C    -0.750000000    -3.228000000     3.144000000
H    -1.300000000    -3.275000000     2.208000000
C     0.335000000    -1.919000000     4.846000000
H     0.464000000    -0.973000000     5.366000000
O    -2.958000000    -1.285000000     3.681000000
H    -1.401000000    -0.559000000     2.550000000
C    -2.351000000     2.138000000     3.515000000
C    -3.797000000     1.636000000     3.680000000
H    -4.393000000     2.542000000     3.554000000
H    -4.046000000     1.080000000     4.586000000
C    -4.188000000     0.573000000     2.664000000
C    -4.852000000     1.063000000     1.580000000
H    -5.060000000     2.124000000     1.471000000
C    -3.834000000    -0.805000000     2.734000000
C    -4.191000000    -1.627000000     1.728000000
H    -3.877000000    -2.664000000     1.821000000
C    -4.746000000    -1.095000000     0.554000000
O    -4.807000000    -1.902000000    -0.561000000
C    -3.729000000    -1.849000000    -1.542000000
C    -3.266000000    -3.203000000    -2.118000000
C    -3.246000000    -4.287000000    -1.301000000
H    -3.637000000    -4.269000000    -0.287000000
C    -2.822000000    -3.282000000    -3.380000000
H    -2.756000000    -2.446000000    -4.073000000
O    -4.164000000    -0.977000000    -2.585000000
H    -2.822000000    -1.484000000    -1.038000000
C    -5.082000000     0.256000000     0.494000000
C    -5.436000000     0.924000000    -0.760000000
H    -5.893000000     1.862000000    -0.439000000
H    -6.142000000     0.328000000    -1.342000000
C    -4.260000000     1.281000000    -1.665000000
C    -3.772000000     0.354000000    -2.625000000
C    -2.719000000     0.704000000    -3.442000000
H    -2.518000000     0.015000000    -4.258000000
C    -2.157000000     1.965000000    -3.328000000
O    -0.940000000     2.243000000    -3.982000000
C     0.278000000     2.260000000    -3.103000000
H     0.077000000     1.712000000    -2.171000000
C     1.331000000     1.429000000    -3.782000000
C     2.671000000     1.832000000    -3.761000000
H     3.029000000     2.753000000    -3.307000000
C     1.019000000     0.191000000    -4.353000000
H     0.008000000    -0.202000000    -4.420000000
C     1.981000000    -0.561000000    -5.028000000
O     1.657000000    -1.653000000    -5.740000000
C     3.249000000    -0.172000000    -5.029000000
H     4.074000000    -0.750000000    -5.439000000
C     3.663000000     1.012000000    -4.312000000
O     5.024000000     1.290000000    -4.218000000
C     5.685000000     2.248000000    -3.476000000
C     5.757000000     2.154000000    -2.057000000
H     5.372000000     1.302000000    -1.503000000
C     6.252000000     3.351000000    -4.111000000
H     6.267000000     3.336000000    -5.198000000
C     6.773000000     4.359000000    -3.359000000
H     7.198000000     5.113000000    -4.016000000
C     6.889000000     4.293000000    -1.975000000
H     7.417000000     5.027000000    -1.372000000
C     6.421000000     3.185000000    -1.293000000
O     6.607000000     2.991000000     0.067000000
C     5.685000000     2.532000000     0.910000000
C     5.978000000     1.500000000     1.843000000
H     6.947000000     1.010000000     1.893000000
C     5.066000000     1.052000000     2.704000000
O     5.272000000    -0.146000000     3.451000000
C     4.581000000    -0.470000000     4.640000000
C     3.693000000    -1.517000000     4.720000000
H     3.412000000    -1.963000000     3.770000000
C     4.747000000     0.426000000     5.732000000
H     5.432000000     1.268000000     5.676000000
C     4.223000000     0.064000000     6.944000000
H     4.384000000     0.756000000     7.766000000
C     3.309000000    -1.006000000     7.038000000
H     2.888000000    -1.369000000     7.973000000
C     3.065000000    -1.815000000     5.923000000
O     2.121000000    -2.814000000     5.981000000
C     1.155000000    -3.009000000     5.087000000
C     0.931000000    -4.252000000     4.479000000
H     1.682000000    -5.025000000     4.621000000
C     0.036000000    -4.305000000     3.438000000
O     0.020000000    -5.361000000     2.533000000
C    -1.197000000    -5.892000000     2.116000000
C    -1.480000000    -5.889000000     0.724000000
H    -0.828000000    -5.354000000     0.038000000
C    -2.044000000    -6.423000000     3.077000000
H    -1.746000000    -6.365000000     4.121000000
C    -3.261000000    -6.944000000     2.655000000
H    -4.011000000    -7.151000000     3.414000000
C    -3.540000000    -7.017000000     1.280000000
H    -4.528000000    -7.376000000     1.002000000
C    -2.631000000    -6.560000000     0.313000000
O    -2.948000000    -6.628000000    -1.046000000
C    -2.951000000    -5.522000000    -1.788000000
C    -2.408000000    -5.639000000    -3.075000000
H    -2.074000000    -6.617000000    -3.412000000
C    -2.312000000    -4.469000000    -3.903000000
O    -1.986000000    -4.688000000    -5.204000000
C    -1.337000000    -3.728000000    -5.980000000
C    -1.923000000    -3.247000000    -7.126000000
H    -2.855000000    -3.730000000    -7.408000000
C    -1.427000000    -2.160000000    -7.714000000
H    -2.020000000    -1.526000000    -8.369000000
C    -0.233000000    -1.611000000    -7.203000000
H     0.170000000    -0.744000000    -7.720000000
C     0.463000000    -2.143000000    -6.096000000
C    -0.100000000    -3.297000000    -5.490000000
H     0.305000000    -3.861000000    -4.654000000
C     0.584000000    -2.262000000    -0.974000000
H     0.327000000    -3.002000000    -1.728000000
C    -0.133000000    -1.089000000    -0.930000000
H    -0.870000000    -0.754000000    -1.656000000
C     0.099000000    -0.191000000     0.096000000
C    -0.730000000     1.063000000     0.343000000
H    -0.284000000     1.914000000    -0.176000000
H    -1.741000000     0.938000000    -0.050000000
H    -0.786000000     1.310000000     1.405000000
C     1.067000000    -0.428000000     1.074000000
H     1.384000000     0.212000000     1.893000000
C     1.836000000    -1.615000000     0.983000000
H     2.636000000    -1.760000000     1.704000000
C     1.631000000    -2.481000000    -0.066000000
C     2.475000000    -3.732000000    -0.206000000
O     3.342000000    -3.936000000     0.554000000
O     2.338000000    -4.411000000    -1.222000000
O     5.554000000    -4.916000000    -2.320000000
H     5.721000000    -4.520000000    -1.464000000
H     6.328000000    -4.698000000    -2.840000000
O     3.219000000    -5.845000000     2.569000000
H     2.981000000    -5.212000000     1.892000000
H     2.392000000    -6.267000000     2.803000000
O     8.336000000    -2.193000000     1.016000000
H     8.548000000    -2.948000000     0.467000000
H     7.621000000    -1.754000000     0.555000000
O     1.703000000    -8.175000000     3.612000000
H     0.998000000    -8.799000000     3.784000000
H     2.131000000    -8.509000000     2.824000000
O     3.733000000    -3.696000000    -5.974000000
H     3.564000000    -4.173000000    -5.161000000
H     3.406000000    -2.812000000    -5.804000000
O     3.200000000    -2.263000000    -2.810000000
H     2.245000000    -2.241000000    -2.874000000
H     3.389000000    -3.072000000    -2.335000000
O     5.647000000    -7.835000000    -2.258000000
H     5.188000000    -7.403000000    -1.538000000
H     4.949000000    -8.208000000    -2.797000000
O     3.298000000    -6.961000000    -0.359000000
H     4.217000000    -6.941000000    -0.092000000
H     3.012000000    -6.049000000    -0.301000000
O     7.519000000    -3.970000000     3.826000000
H     6.847000000    -3.704000000     3.198000000
H     7.688000000    -4.889000000     3.620000000
O    -0.483000000    -9.065000000     0.994000000
H    -0.527000000    -8.148000000     0.724000000
H     0.392000000    -9.351000000     0.732000000
O     5.630000000    -2.638000000    -0.583000000
H     5.406000000    -2.418000000    -1.488000000
H     4.854000000    -3.085000000    -0.246000000
O     3.020000000    -5.024000000    -3.598000000
H     3.900000000    -5.327000000    -3.378000000
H     2.624000000    -4.803000000    -2.755000000
O     5.772000000    -1.319000000    -2.888000000
H     4.843000000    -1.444000000    -3.081000000
H     6.142000000    -0.973000000    -3.700000000
O     5.922000000    -6.619000000     0.802000000
H     5.942000000    -6.130000000     1.624000000
H     6.741000000    -7.114000000     0.798000000
O     5.329000000    -7.480000000     3.227000000
H     4.734000000    -6.758000000     3.428000000
H     5.188000000    -7.656000000     2.297000000
O     2.042000000    -9.508000000     0.446000000
H     2.630000000   -10.256000000     0.339000000
H     2.419000000    -8.826000000    -0.110000000
O     0.901000000    -9.644000000    -2.879000000
H     0.687000000   -10.278000000    -2.195000000
H     0.559000000    -8.813000000    -2.550000000
O     0.786000000    -7.036000000    -1.958000000
H     1.566000000    -7.076000000    -1.404000000
H     1.007000000    -6.398000000    -2.637000000
O     5.527000000    -3.711000000     2.017000000
H     4.751000000    -3.901000000     1.490000000
H     5.999000000    -3.045000000     1.517000000
