218
-1453.30258
C     4.223000000     0.915000000     3.131000000
H     3.533000000     0.876000000     3.970000000
C     3.923000000     1.737000000     2.022000000
C     4.764000000     1.716000000     0.942000000
H     4.365000000     2.167000000     0.037000000
C     2.601000000     2.495000000     1.976000000
O     2.202000000     2.917000000     3.301000000
H     1.836000000     1.803000000     1.594000000
O     2.697000000     3.650000000     1.068000000
C     1.624000000     3.995000000     0.309000000
C     1.800000000     3.688000000    -0.997000000
H     2.724000000     3.182000000    -1.265000000
C     0.712000000     3.895000000    -1.862000000
O     0.940000000     3.552000000    -3.215000000
C    -0.499000000     4.489000000    -1.376000000
C    -1.600000000     4.710000000    -2.335000000
H    -2.273000000     5.511000000    -2.021000000
C    -2.447000000     3.497000000    -2.488000000
C    -3.482000000     3.225000000    -1.577000000
H    -3.736000000     3.872000000    -0.741000000
H    -1.261000000     5.069000000    -3.309000000
C    -0.639000000     4.797000000    -0.016000000
H    -1.535000000     5.248000000     0.403000000
C     0.430000000     4.541000000     0.831000000
C     0.282000000     4.929000000     2.322000000
H    -0.447000000     5.708000000     2.553000000
H     1.242000000     5.214000000     2.758000000
C    -0.167000000     3.673000000     3.075000000
C    -1.504000000     3.360000000     3.285000000
H    -2.237000000     4.070000000     2.910000000
C     0.810000000     2.824000000     3.555000000
C     0.341000000     1.671000000     4.251000000
H     1.042000000     0.993000000     4.732000000
C    -0.930000000     1.369000000     4.431000000
O    -1.269000000     0.109000000     4.956000000
C    -1.629000000    -0.835000000     4.003000000
C    -1.018000000    -2.225000000     4.334000000
C    -1.600000000    -3.456000000     3.978000000
H    -2.552000000    -3.381000000     3.459000000
C     0.210000000    -2.249000000     5.011000000
H     0.814000000    -1.357000000     5.157000000
O    -3.038000000    -0.895000000     3.941000000
H    -1.187000000    -0.611000000     3.021000000
C    -1.943000000     2.265000000     4.022000000
C    -3.408000000     1.991000000     4.110000000
H    -3.928000000     2.938000000     4.268000000
H    -3.566000000     1.550000000     5.097000000
C    -3.991000000     1.083000000     2.960000000
C    -4.529000000     1.723000000     1.835000000
H    -4.595000000     2.808000000     1.839000000
C    -3.628000000    -0.265000000     2.895000000
C    -3.965000000    -0.983000000     1.813000000
H    -3.762000000    -2.051000000     1.792000000
C    -4.499000000    -0.364000000     0.683000000
O    -4.717000000    -1.188000000    -0.400000000
C    -3.843000000    -1.020000000    -1.448000000
C    -3.142000000    -2.215000000    -2.014000000
C    -2.658000000    -3.228000000    -1.172000000
H    -2.698000000    -2.981000000    -0.114000000
C    -3.027000000    -2.403000000    -3.377000000
H    -3.510000000    -1.762000000    -4.109000000
O    -4.293000000    -0.196000000    -2.540000000
H    -2.961000000    -0.541000000    -0.997000000
C    -4.739000000     0.989000000     0.624000000
C    -5.222000000     1.705000000    -0.583000000
H    -5.637000000     2.680000000    -0.323000000
H    -5.990000000     1.175000000    -1.151000000
C    -4.164000000     2.002000000    -1.641000000
C    -3.787000000     1.102000000    -2.649000000
C    -2.814000000     1.395000000    -3.645000000
H    -2.547000000     0.671000000    -4.411000000
C    -2.112000000     2.572000000    -3.469000000
O    -0.959000000     2.607000000    -4.223000000
C     0.302000000     2.330000000    -3.616000000
H    -0.014000000     1.672000000    -2.794000000
C     1.230000000     1.477000000    -4.515000000
C     2.528000000     1.315000000    -4.095000000
H     2.913000000     1.871000000    -3.244000000
C     0.778000000     0.815000000    -5.625000000
H    -0.262000000     0.892000000    -5.931000000
C     1.560000000    -0.171000000    -6.207000000
O     1.082000000    -0.985000000    -7.233000000
C     2.896000000    -0.269000000    -5.796000000
H     3.545000000    -0.924000000    -6.372000000
C     3.418000000     0.507000000    -4.714000000
O     4.739000000     0.406000000    -4.477000000
C     5.405000000     1.257000000    -3.567000000
C     5.742000000     0.749000000    -2.332000000
H     5.414000000    -0.253000000    -2.065000000
C     5.472000000     2.663000000    -3.813000000
H     5.015000000     3.048000000    -4.721000000
C     6.002000000     3.591000000    -2.933000000
H     6.186000000     4.647000000    -3.110000000
C     6.472000000     3.032000000    -1.687000000
H     6.921000000     3.714000000    -0.969000000
C     6.306000000     1.622000000    -1.402000000
O     6.715000000     1.060000000    -0.213000000
C     6.002000000     1.023000000     0.974000000
C     6.381000000     0.285000000     2.091000000
H     7.191000000    -0.427000000     1.958000000
C     5.456000000     0.156000000     3.150000000
O     5.720000000    -0.639000000     4.197000000
C     4.754000000    -1.144000000     5.092000000
C     3.882000000    -2.192000000     4.841000000
H     3.897000000    -2.729000000     3.896000000
C     4.691000000    -0.520000000     6.339000000
H     5.382000000     0.307000000     6.486000000
C     3.806000000    -0.922000000     7.344000000
H     3.720000000    -0.363000000     8.272000000
C     2.978000000    -1.969000000     7.094000000
H     2.264000000    -2.287000000     7.850000000
C     3.018000000    -2.529000000     5.840000000
O     2.121000000    -3.597000000     5.712000000
C     0.819000000    -3.495000000     5.306000000
C     0.201000000    -4.723000000     4.922000000
H     0.634000000    -5.713000000     5.044000000
C    -0.993000000    -4.662000000     4.221000000
O    -1.568000000    -5.813000000     3.875000000
C    -2.175000000    -5.968000000     2.643000000
C    -1.446000000    -5.773000000     1.456000000
H    -0.454000000    -5.329000000     1.434000000
C    -3.481000000    -6.354000000     2.609000000
H    -3.941000000    -6.652000000     3.547000000
C    -4.079000000    -6.463000000     1.335000000
H    -5.099000000    -6.840000000     1.318000000
C    -3.348000000    -6.187000000     0.156000000
H    -3.841000000    -6.387000000    -0.792000000
C    -2.065000000    -5.703000000     0.251000000
O    -1.445000000    -5.300000000    -0.908000000
C    -1.976000000    -4.311000000    -1.728000000
C    -1.803000000    -4.444000000    -3.100000000
H    -1.368000000    -5.376000000    -3.451000000
C    -2.270000000    -3.471000000    -3.924000000
O    -2.214000000    -3.739000000    -5.306000000
C    -1.891000000    -2.754000000    -6.207000000
C    -2.819000000    -2.255000000    -7.098000000
H    -3.838000000    -2.599000000    -6.944000000
C    -2.521000000    -1.119000000    -7.857000000
H    -3.310000000    -0.616000000    -8.410000000
C    -1.210000000    -0.711000000    -8.024000000
H    -0.828000000    -0.048000000    -8.795000000
C    -0.218000000    -1.290000000    -7.195000000
C    -0.600000000    -2.275000000    -6.266000000
H     0.135000000    -2.666000000    -5.567000000
C     1.369000000    -2.531000000    -0.815000000
H     1.337000000    -3.098000000    -1.742000000
C     0.482000000    -1.374000000    -0.752000000
H    -0.168000000    -1.230000000    -1.611000000
C     0.441000000    -0.561000000     0.374000000
C    -0.515000000     0.597000000     0.407000000
H    -0.180000000     1.500000000    -0.106000000
H    -1.382000000     0.305000000    -0.188000000
H    -0.828000000     0.877000000     1.415000000
C     1.333000000    -0.795000000     1.445000000
H     1.281000000    -0.208000000     2.358000000
C     2.149000000    -1.965000000     1.405000000
H     2.894000000    -2.254000000     2.142000000
C     2.169000000    -2.853000000     0.274000000
C     3.041000000    -4.040000000     0.309000000
O     3.449000000    -4.483000000     1.402000000
O     3.182000000    -4.690000000    -0.704000000
O     2.026000000    -5.450000000    -3.160000000
H     1.882000000    -5.112000000    -2.276000000
H     1.942000000    -6.399000000    -3.070000000
O     4.679000000    -4.308000000    -2.803000000
H     4.822000000    -5.214000000    -3.076000000
H     4.075000000    -4.373000000    -2.064000000
O     0.558000000    -8.383000000     2.613000000
H     0.279000000    -7.655000000     2.058000000
H    -0.020000000    -8.339000000     3.374000000
O     4.569000000    -9.702000000     1.017000000
H     4.734000000   -10.108000000     0.166000000
H     4.331000000    -8.798000000     0.810000000
O     7.020000000    -5.834000000    -0.834000000
H     6.485000000    -6.121000000    -1.574000000
H     7.914000000    -5.820000000    -1.176000000
O     6.761000000    -4.077000000     4.926000000
H     6.304000000    -4.327000000     4.123000000
H     7.021000000    -4.908000000     5.322000000
O     7.410000000    -6.959000000     1.579000000
H     7.122000000    -6.215000000     2.108000000
H     7.113000000    -6.752000000     0.693000000
O     1.338000000    -5.330000000    -5.741000000
H     0.681000000    -6.025000000    -5.702000000
H     1.472000000    -5.075000000    -4.828000000
O     4.114000000    -4.628000000    -5.641000000
H     3.302000000    -4.434000000    -6.109000000
H     3.826000000    -4.971000000    -4.795000000
O     1.533000000    -6.802000000     0.653000000
H     1.802000000    -5.898000000     0.489000000
H     2.134000000    -7.330000000     0.127000000
O     6.744000000    -3.385000000     0.703000000
H     5.986000000    -3.471000000     1.282000000
H     6.877000000    -4.265000000     0.352000000
O     5.530000000    -5.043000000     2.591000000
H     4.825000000    -4.804000000     1.989000000
H     5.122000000    -5.651000000     3.208000000
O     5.952000000    -7.221000000    -2.871000000
H     6.484000000    -8.001000000    -3.025000000
H     5.054000000    -7.507000000    -3.037000000
O     2.115000000    -8.199000000    -2.800000000
H     2.012000000    -9.121000000    -2.563000000
H     2.359000000    -8.216000000    -3.725000000
O     6.775000000    -2.671000000    -1.949000000
H     6.765000000    -2.724000000    -0.993000000
H     6.155000000    -3.343000000    -2.232000000
O     4.243000000    -7.125000000     0.275000000
H     4.185000000    -6.185000000     0.446000000
H     4.173000000    -7.200000000    -0.677000000
O    -1.133000000    -8.576000000    -0.944000000
H    -0.620000000    -7.771000000    -1.019000000
H    -0.528000000    -9.211000000    -0.561000000
O     3.255000000    -6.731000000     3.236000000
H     3.329000000    -6.145000000     2.483000000
H     2.951000000    -7.560000000     2.865000000
O     2.137000000    -7.749000000     5.551000000
H     2.763000000    -7.032000000     5.653000000
H     1.960000000    -7.780000000     4.610000000
