218
-1464.31245
C     4.167000000     1.177000000     2.922000000
H     3.802000000     1.409000000     3.919000000
C     3.590000000     1.758000000     1.776000000
C     4.048000000     1.447000000     0.473000000
H     3.604000000     1.812000000    -0.450000000
C     2.430000000     2.745000000     1.892000000
O     2.087000000     3.018000000     3.238000000
H     1.534000000     2.227000000     1.519000000
O     2.687000000     3.998000000     1.153000000
C     1.578000000     4.449000000     0.399000000
C     1.666000000     4.325000000    -0.998000000
H     2.566000000     3.962000000    -1.488000000
C     0.497000000     4.349000000    -1.744000000
O     0.584000000     4.110000000    -3.110000000
C    -0.706000000     4.737000000    -1.113000000
C    -1.954000000     4.819000000    -1.861000000
H    -2.611000000     5.506000000    -1.323000000
C    -2.557000000     3.416000000    -2.071000000
C    -3.615000000     3.059000000    -1.220000000
H    -3.925000000     3.670000000    -0.377000000
H    -1.841000000     5.257000000    -2.855000000
C    -0.684000000     5.093000000     0.212000000
H    -1.664000000     5.251000000     0.654000000
C     0.380000000     4.961000000     1.007000000
C     0.166000000     5.140000000     2.504000000
H    -0.481000000     5.959000000     2.827000000
H     1.102000000     5.507000000     2.931000000
C    -0.244000000     3.785000000     3.211000000
C    -1.575000000     3.413000000     3.366000000
H    -2.346000000     4.163000000     3.208000000
C     0.757000000     2.830000000     3.499000000
C     0.470000000     1.578000000     3.990000000
H     1.187000000     0.764000000     4.061000000
C    -0.887000000     1.268000000     4.206000000
O    -1.068000000     0.027000000     4.700000000
C    -1.435000000    -0.960000000     3.784000000
C    -0.672000000    -2.166000000     4.052000000
C    -1.060000000    -3.421000000     3.390000000
H    -1.857000000    -3.523000000     2.658000000
C     0.515000000    -2.190000000     4.889000000
H     0.777000000    -1.303000000     5.461000000
O    -2.843000000    -1.076000000     4.009000000
H    -1.253000000    -0.681000000     2.736000000
C    -1.921000000     2.108000000     3.794000000
C    -3.392000000     1.756000000     4.150000000
H    -4.007000000     2.648000000     4.288000000
H    -3.418000000     1.228000000     5.106000000
C    -3.927000000     0.841000000     3.029000000
C    -4.572000000     1.470000000     1.980000000
H    -4.839000000     2.521000000     1.916000000
C    -3.598000000    -0.517000000     3.054000000
C    -3.862000000    -1.272000000     1.934000000
H    -3.676000000    -2.343000000     1.949000000
C    -4.332000000    -0.681000000     0.817000000
O    -4.579000000    -1.427000000    -0.314000000
C    -3.615000000    -1.327000000    -1.397000000
C    -3.306000000    -2.658000000    -2.007000000
C    -3.530000000    -3.786000000    -1.267000000
H    -4.148000000    -3.817000000    -0.374000000
C    -2.542000000    -2.753000000    -3.163000000
H    -2.353000000    -1.810000000    -3.671000000
O    -4.097000000    -0.461000000    -2.435000000
H    -2.657000000    -0.918000000    -1.044000000
C    -4.767000000     0.663000000     0.821000000
C    -5.328000000     1.382000000    -0.426000000
H    -5.906000000     2.241000000    -0.079000000
H    -6.071000000     0.771000000    -0.943000000
C    -4.151000000     1.747000000    -1.352000000
C    -3.692000000     0.866000000    -2.350000000
C    -2.756000000     1.302000000    -3.227000000
H    -2.376000000     0.630000000    -3.992000000
C    -2.166000000     2.563000000    -3.104000000
O    -1.171000000     2.924000000    -3.998000000
C     0.164000000     2.819000000    -3.492000000
H     0.133000000     2.104000000    -2.656000000
C     1.010000000     2.160000000    -4.597000000
C     2.329000000     2.383000000    -4.513000000
H     2.796000000     2.982000000    -3.735000000
C     0.443000000     1.276000000    -5.554000000
H    -0.628000000     1.086000000    -5.556000000
C     1.289000000     0.615000000    -6.398000000
O     0.871000000    -0.349000000    -7.280000000
C     2.685000000     0.922000000    -6.329000000
H     3.277000000     0.464000000    -7.117000000
C     3.184000000     1.819000000    -5.397000000
O     4.552000000     1.966000000    -5.293000000
C     5.206000000     2.122000000    -4.022000000
C     5.059000000     1.120000000    -3.097000000
H     4.628000000     0.160000000    -3.372000000
C     5.888000000     3.265000000    -3.717000000
H     5.916000000     4.101000000    -4.412000000
C     6.448000000     3.497000000    -2.515000000
H     6.971000000     4.430000000    -2.323000000
C     6.342000000     2.487000000    -1.521000000
H     6.828000000     2.613000000    -0.557000000
C     5.639000000     1.282000000    -1.827000000
O     5.615000000     0.288000000    -0.901000000
C     5.093000000     0.519000000     0.360000000
C     5.653000000    -0.098000000     1.426000000
H     6.453000000    -0.811000000     1.240000000
C     5.150000000     0.209000000     2.744000000
O     5.772000000    -0.394000000     3.820000000
C     5.083000000    -0.904000000     4.863000000
C     4.052000000    -1.805000000     4.727000000
H     3.831000000    -2.237000000     3.754000000
C     5.301000000    -0.346000000     6.135000000
H     6.096000000     0.365000000     6.348000000
C     4.573000000    -0.712000000     7.214000000
H     4.822000000    -0.400000000     8.226000000
C     3.682000000    -1.775000000     7.046000000
H     3.223000000    -2.382000000     7.823000000
C     3.389000000    -2.241000000     5.814000000
O     2.499000000    -3.304000000     5.727000000
C     1.330000000    -3.325000000     4.969000000
C     0.945000000    -4.465000000     4.295000000
H     1.623000000    -5.310000000     4.376000000
C    -0.240000000    -4.543000000     3.525000000
O    -0.474000000    -5.780000000     2.940000000
C    -1.606000000    -6.103000000     2.278000000
C    -1.711000000    -5.896000000     0.933000000
H    -0.904000000    -5.736000000     0.223000000
C    -2.692000000    -6.543000000     3.026000000
H    -2.613000000    -6.744000000     4.091000000
C    -3.961000000    -6.737000000     2.452000000
H    -4.791000000    -7.122000000     3.038000000
C    -4.065000000    -6.557000000     1.103000000
H    -5.040000000    -6.755000000     0.664000000
C    -2.985000000    -6.172000000     0.389000000
O    -3.178000000    -6.170000000    -0.958000000
C    -2.990000000    -5.018000000    -1.678000000
C    -2.283000000    -5.078000000    -2.912000000
H    -1.841000000    -6.008000000    -3.262000000
C    -2.009000000    -3.923000000    -3.637000000
O    -1.327000000    -4.090000000    -4.866000000
C    -1.274000000    -3.029000000    -5.821000000
C    -2.350000000    -2.986000000    -6.661000000
H    -3.193000000    -3.631000000    -6.425000000
C    -2.398000000    -2.020000000    -7.693000000
H    -3.258000000    -1.814000000    -8.325000000
C    -1.252000000    -1.172000000    -7.849000000
H    -1.364000000    -0.344000000    -8.544000000
C    -0.166000000    -1.209000000    -7.001000000
C    -0.153000000    -2.191000000    -6.013000000
H     0.792000000    -2.338000000    -5.497000000
C     0.389000000    -2.139000000    -1.563000000
H     0.351000000    -2.663000000    -2.515000000
C    -0.159000000    -0.908000000    -1.367000000
H    -0.654000000    -0.469000000    -2.230000000
C    -0.038000000    -0.186000000    -0.162000000
C    -0.802000000     1.126000000     0.018000000
H    -1.673000000     1.113000000    -0.641000000
H    -1.171000000     1.014000000     1.040000000
H    -0.135000000     1.988000000    -0.043000000
C     0.504000000    -0.834000000     0.887000000
H     0.586000000    -0.363000000     1.863000000
C     0.970000000    -2.111000000     0.732000000
H     1.482000000    -2.495000000     1.611000000
C     0.871000000    -2.745000000    -0.442000000
C     1.464000000    -4.087000000    -0.706000000
O     2.044000000    -4.694000000     0.186000000
O     1.306000000    -4.702000000    -1.728000000
O     2.443000000    -4.804000000    -4.110000000
H     2.007000000    -4.501000000    -3.314000000
H     2.793000000    -5.664000000    -3.880000000
O     3.318000000    -6.724000000    -1.022000000
H     3.589000000    -6.434000000    -1.893000000
H     2.845000000    -5.977000000    -0.657000000
O     4.117000000    -5.252000000     4.224000000
H     4.207000000    -4.767000000     3.403000000
H     3.665000000    -4.647000000     4.812000000
O     4.972000000    -4.221000000    -5.501000000
H     4.058000000    -4.204000000    -5.216000000
H     5.465000000    -3.909000000    -4.742000000
O     0.839000000    -8.083000000     4.288000000
H     1.268000000    -8.756000000     3.760000000
H     0.608000000    -7.398000000     3.661000000
O    -1.475000000    -9.644000000     0.808000000
H    -1.578000000    -9.267000000    -0.066000000
H    -0.582000000    -9.414000000     1.064000000
O     4.497000000    -8.567000000     0.814000000
H     3.748000000    -9.055000000     0.473000000
H     4.277000000    -7.649000000     0.657000000
O    -0.796000000    -6.384000000    -6.255000000
H    -1.208000000    -7.064000000    -5.722000000
H    -0.949000000    -5.574000000    -5.769000000
O     1.897000000    -5.512000000    -6.894000000
H     1.008000000    -5.793000000    -6.676000000
H     2.369000000    -5.543000000    -6.062000000
O     7.064000000    -2.881000000    -0.380000000
H     7.528000000    -2.070000000    -0.173000000
H     7.616000000    -3.572000000    -0.015000000
O     0.217000000    -7.105000000    -1.861000000
H     0.780000000    -7.698000000    -2.357000000
H     0.671000000    -6.263000000    -1.890000000
O     4.538000000    -3.928000000     1.616000000
H     5.090000000    -3.516000000     0.952000000
H     3.819000000    -4.321000000     1.121000000
O     4.906000000    -6.683000000    -3.325000000
H     5.453000000    -6.258000000    -3.987000000
H     5.416000000    -7.443000000    -3.046000000
O     2.035000000    -8.710000000    -3.449000000
H     2.767000000    -8.160000000    -3.169000000
H     2.245000000    -8.946000000    -4.352000000
O     6.981000000    -3.501000000    -3.488000000
H     7.731000000    -4.095000000    -3.483000000
H     6.682000000    -3.485000000    -2.578000000
O     2.512000000    -9.504000000    -0.755000000
H     2.183000000    -8.628000000    -0.554000000
H     2.305000000    -9.631000000    -1.681000000
O    -1.604000000    -8.870000000    -1.772000000
H    -1.025000000    -8.115000000    -1.872000000
H    -2.486000000    -8.510000000    -1.865000000
O     1.331000000    -7.685000000     0.934000000
H     2.066000000    -7.072000000     0.905000000
H     0.738000000    -7.381000000     0.247000000
O     1.404000000    -9.970000000     2.398000000
H     2.258000000   -10.220000000     2.751000000
H     1.572000000    -9.162000000     1.913000000
