218
-1464.41730
C     4.677000000     0.783000000     2.415000000
H     4.080000000     0.529000000     3.287000000
C     4.354000000     1.845000000     1.474000000
C     5.050000000     1.996000000     0.279000000
H     4.740000000     2.816000000    -0.364000000
C     3.115000000     2.707000000     1.758000000
O     2.955000000     3.058000000     3.120000000
H     2.359000000     2.027000000     1.337000000
O     3.075000000     3.910000000     1.048000000
C     1.962000000     4.251000000     0.370000000
C     1.981000000     4.037000000    -1.011000000
H     2.894000000     3.726000000    -1.513000000
C     0.831000000     4.147000000    -1.731000000
O     0.725000000     3.689000000    -3.016000000
C    -0.354000000     4.620000000    -1.090000000
C    -1.659000000     4.794000000    -1.820000000
H    -2.271000000     5.532000000    -1.297000000
C    -2.502000000     3.497000000    -1.895000000
C    -3.505000000     3.282000000    -0.937000000
H    -3.546000000     3.923000000    -0.060000000
H    -1.553000000     5.240000000    -2.811000000
C    -0.312000000     5.118000000     0.256000000
H    -1.213000000     5.486000000     0.739000000
C     0.839000000     4.916000000     1.003000000
C     0.849000000     5.112000000     2.501000000
H    -0.005000000     5.747000000     2.747000000
H     1.837000000     5.503000000     2.751000000
C     0.586000000     3.824000000     3.259000000
C    -0.679000000     3.503000000     3.571000000
H    -1.447000000     4.264000000     3.458000000
C     1.622000000     2.919000000     3.537000000
C     1.277000000     1.645000000     4.073000000
H     2.082000000     0.914000000     4.073000000
C    -0.088000000     1.336000000     4.323000000
O    -0.421000000     0.085000000     4.800000000
C    -1.057000000    -0.833000000     3.861000000
C    -0.488000000    -2.248000000     3.880000000
C    -1.058000000    -3.318000000     3.166000000
H    -1.930000000    -3.130000000     2.546000000
C     0.757000000    -2.493000000     4.411000000
H     1.251000000    -1.668000000     4.917000000
O    -2.503000000    -0.797000000     4.068000000
H    -0.741000000    -0.400000000     2.901000000
C    -1.074000000     2.278000000     4.092000000
C    -2.561000000     2.085000000     4.301000000
H    -3.007000000     3.081000000     4.323000000
H    -2.778000000     1.603000000     5.257000000
C    -3.281000000     1.341000000     3.129000000
C    -4.235000000     1.959000000     2.331000000
H    -4.402000000     3.031000000     2.391000000
C    -3.263000000    -0.090000000     3.121000000
C    -3.912000000    -0.856000000     2.162000000
H    -3.961000000    -1.939000000     2.229000000
C    -4.702000000    -0.239000000     1.222000000
O    -5.148000000    -0.976000000     0.206000000
C    -4.262000000    -1.102000000    -0.994000000
C    -4.262000000    -2.455000000    -1.634000000
C    -4.557000000    -3.555000000    -0.894000000
H    -4.981000000    -3.451000000     0.102000000
C    -3.796000000    -2.566000000    -2.930000000
H    -3.570000000    -1.701000000    -3.549000000
O    -4.654000000    -0.107000000    -1.991000000
H    -3.281000000    -0.849000000    -0.567000000
C    -4.824000000     1.159000000     1.290000000
C    -5.422000000     1.938000000     0.134000000
H    -5.762000000     2.901000000     0.521000000
H    -6.377000000     1.593000000    -0.267000000
C    -4.339000000     2.118000000    -0.986000000
C    -4.056000000     1.128000000    -1.959000000
C    -3.136000000     1.385000000    -2.930000000
H    -3.014000000     0.728000000    -3.787000000
C    -2.351000000     2.558000000    -2.913000000
O    -1.222000000     2.550000000    -3.771000000
C     0.134000000     2.355000000    -3.223000000
H    -0.039000000     1.832000000    -2.271000000
C     1.005000000     1.470000000    -4.105000000
C     2.351000000     1.791000000    -4.334000000
H     2.736000000     2.653000000    -3.796000000
C     0.398000000     0.339000000    -4.634000000
H    -0.664000000     0.134000000    -4.518000000
C     1.206000000    -0.552000000    -5.381000000
O     0.609000000    -1.726000000    -5.885000000
C     2.602000000    -0.261000000    -5.558000000
H     3.124000000    -0.834000000    -6.320000000
C     3.128000000     0.912000000    -5.017000000
O     4.482000000     1.216000000    -5.200000000
C     5.341000000     1.919000000    -4.289000000
C     5.605000000     1.297000000    -3.069000000
H     5.042000000     0.425000000    -2.743000000
C     6.011000000     3.082000000    -4.710000000
H     5.747000000     3.438000000    -5.703000000
C     6.943000000     3.591000000    -3.828000000
H     7.456000000     4.510000000    -4.100000000
C     7.234000000     2.998000000    -2.581000000
H     8.002000000     3.443000000    -1.953000000
C     6.517000000     1.892000000    -2.169000000
O     6.936000000     1.261000000    -1.054000000
C     6.109000000     1.057000000     0.053000000
C     6.477000000     0.081000000     0.963000000
H     7.205000000    -0.693000000     0.735000000
C     5.731000000    -0.126000000     2.084000000
O     6.181000000    -1.157000000     2.925000000
C     5.504000000    -1.613000000     3.982000000
C     4.470000000    -2.526000000     3.805000000
H     4.336000000    -2.837000000     2.772000000
C     5.758000000    -1.223000000     5.303000000
H     6.529000000    -0.490000000     5.527000000
C     4.894000000    -1.595000000     6.345000000
H     5.011000000    -1.223000000     7.359000000
C     3.826000000    -2.476000000     6.127000000
H     3.141000000    -2.889000000     6.863000000
C     3.672000000    -2.950000000     4.835000000
O     2.697000000    -3.951000000     4.718000000
C     1.396000000    -3.687000000     4.303000000
C     0.775000000    -4.735000000     3.713000000
H     1.394000000    -5.628000000     3.684000000
C    -0.450000000    -4.581000000     3.101000000
O    -1.005000000    -5.655000000     2.435000000
C    -2.372000000    -5.773000000     2.128000000
C    -2.794000000    -5.935000000     0.826000000
H    -2.049000000    -5.884000000     0.036000000
C    -3.249000000    -5.752000000     3.178000000
H    -2.941000000    -5.587000000     4.207000000
C    -4.609000000    -5.951000000     2.870000000
H    -5.339000000    -5.954000000     3.675000000
C    -5.074000000    -6.163000000     1.548000000
H    -6.134000000    -6.255000000     1.327000000
C    -4.178000000    -6.128000000     0.573000000
O    -4.717000000    -5.977000000    -0.756000000
C    -4.514000000    -4.838000000    -1.472000000
C    -4.219000000    -4.996000000    -2.836000000
H    -4.013000000    -5.991000000    -3.223000000
C    -3.909000000    -3.850000000    -3.531000000
O    -3.557000000    -3.884000000    -4.886000000
C    -2.832000000    -2.930000000    -5.579000000
C    -3.505000000    -2.112000000    -6.531000000
H    -4.572000000    -2.215000000    -6.711000000
C    -2.752000000    -1.154000000    -7.205000000
H    -3.339000000    -0.551000000    -7.894000000
C    -1.374000000    -1.074000000    -6.993000000
H    -0.783000000    -0.347000000    -7.545000000
C    -0.722000000    -1.913000000    -6.152000000
C    -1.437000000    -2.855000000    -5.428000000
H    -0.916000000    -3.596000000    -4.828000000
C    -0.143000000    -2.709000000    -1.042000000
H    -0.682000000    -3.240000000    -1.823000000
C    -0.362000000    -1.373000000    -1.003000000
H    -1.095000000    -0.946000000    -1.683000000
C     0.254000000    -0.602000000     0.031000000
C    -0.160000000     0.822000000     0.318000000
H    -1.012000000     1.033000000    -0.332000000
H    -0.699000000     0.656000000     1.252000000
H     0.616000000     1.585000000     0.223000000
C     1.221000000    -1.154000000     0.813000000
H     1.629000000    -0.568000000     1.632000000
C     1.470000000    -2.563000000     0.704000000
H     2.194000000    -3.049000000     1.353000000
C     0.819000000    -3.332000000    -0.275000000
C     1.211000000    -4.796000000    -0.583000000
O     2.048000000    -5.401000000     0.069000000
O     0.640000000    -5.396000000    -1.472000000
O     3.686000000    -7.545000000    -0.052000000
H     3.217000000    -6.767000000    -0.354000000
H     3.018000000    -8.071000000     0.388000000
O     4.163000000    -5.339000000     2.194000000
H     4.143000000    -6.083000000     1.593000000
H     3.340000000    -4.878000000     2.033000000
O     2.886000000    -5.168000000    -2.937000000
H     2.063000000    -5.293000000    -2.464000000
H     3.563000000    -5.416000000    -2.308000000
O     6.602000000    -7.349000000     0.873000000
H     7.132000000    -8.074000000     0.542000000
H     5.698000000    -7.642000000     0.760000000
O     5.358000000    -3.001000000    -0.044000000
H     5.044000000    -3.727000000    -0.584000000
H     5.630000000    -3.414000000     0.776000000
O     5.541000000    -5.594000000    -1.409000000
H     5.845000000    -5.831000000    -2.285000000
H     5.922000000    -6.259000000    -0.835000000
O     3.177000000    -0.903000000    -1.419000000
H     3.707000000    -0.769000000    -0.634000000
H     2.361000000    -1.286000000    -1.095000000
O     6.800000000    -4.703000000     2.101000000
H     7.171000000    -5.462000000     1.653000000
H     5.913000000    -4.974000000     2.337000000
O     1.471000000   -10.744000000     1.198000000
H     0.638000000   -10.293000000     1.059000000
H     2.029000000   -10.091000000     1.622000000
O    -0.628000000    -6.130000000    -3.733000000
H    -0.114000000    -5.939000000    -2.949000000
H    -1.152000000    -6.895000000    -3.495000000
O     3.697000000    -2.518000000    -3.825000000
H     3.237000000    -3.286000000    -3.485000000
H     3.617000000    -1.864000000    -3.131000000
O     4.935000000    -7.381000000    -3.971000000
H     4.038000000    -7.618000000    -4.205000000
H     5.201000000    -8.045000000    -3.335000000
O     1.428000000    -7.461000000     1.590000000
H     0.516000000    -7.751000000     1.614000000
H     1.409000000    -6.651000000     1.080000000
O    -0.582000000   -10.414000000    -3.212000000
H    -0.382000000    -9.902000000    -2.428000000
H    -1.176000000   -11.100000000    -2.905000000
O    -0.951000000    -8.638000000     1.101000000
H    -0.902000000    -9.044000000     1.966000000
H    -1.888000000    -8.603000000     0.906000000
O     0.254000000    -8.276000000    -1.293000000
H     0.177000000    -7.322000000    -1.293000000
H    -0.147000000    -8.549000000    -0.468000000
O     2.629000000    -9.141000000    -2.153000000
H     3.152000000    -8.424000000    -1.796000000
H     1.725000000    -8.909000000    -1.937000000
O     2.415000000    -8.008000000    -5.363000000
H     1.825000000    -8.753000000    -5.474000000
H     1.855000000    -7.240000000    -5.478000000
O     1.219000000    -4.944000000    -5.327000000
H     0.440000000    -5.189000000    -4.829000000
H     1.950000000    -5.151000000    -4.745000000
