218
-1443.10371
C     4.974000000    -0.742000000     0.979000000
H     4.521000000    -1.456000000     1.662000000
C     4.668000000     0.624000000     1.287000000
C     5.284000000     1.547000000     0.466000000
H     5.012000000     2.594000000     0.567000000
C     3.488000000     1.016000000     2.137000000
O     3.527000000     0.195000000     3.286000000
H     2.502000000     0.901000000     1.663000000
O     3.610000000     2.444000000     2.542000000
C     2.447000000     3.231000000     2.776000000
C     2.074000000     4.047000000     1.712000000
H     2.645000000     4.174000000     0.796000000
C     0.835000000     4.589000000     1.645000000
O     0.449000000     5.159000000     0.424000000
C    -0.042000000     4.388000000     2.729000000
C    -1.572000000     4.715000000     2.707000000
H    -2.091000000     4.880000000     3.653000000
C    -2.301000000     3.719000000     1.864000000
C    -3.009000000     2.680000000     2.540000000
H    -3.002000000     2.600000000     3.624000000
H    -1.659000000     5.672000000     2.188000000
C     0.320000000     3.581000000     3.742000000
H    -0.406000000     3.376000000     4.523000000
C     1.578000000     2.866000000     3.770000000
C     1.927000000     1.942000000     4.927000000
H     1.414000000     2.331000000     5.809000000
H     3.007000000     1.943000000     5.088000000
C     1.558000000     0.508000000     4.579000000
C     0.373000000    -0.030000000     5.016000000
H    -0.374000000     0.494000000     5.606000000
C     2.428000000    -0.268000000     3.826000000
C     2.157000000    -1.606000000     3.565000000
H     3.021000000    -2.182000000     3.242000000
C     0.948000000    -2.138000000     3.858000000
O     0.652000000    -3.384000000     3.378000000
C    -0.335000000    -3.532000000     2.290000000
C     0.116000000    -4.627000000     1.282000000
C    -0.584000000    -4.796000000     0.122000000
H    -1.581000000    -4.368000000     0.050000000
C     1.365000000    -5.253000000     1.380000000
H     1.979000000    -5.183000000     2.274000000
O    -1.697000000    -3.798000000     2.765000000
H    -0.354000000    -2.553000000     1.789000000
C     0.003000000    -1.313000000     4.593000000
C    -1.388000000    -1.807000000     4.875000000
H    -1.809000000    -1.276000000     5.730000000
H    -1.433000000    -2.862000000     5.155000000
C    -2.412000000    -1.759000000     3.805000000
C    -3.263000000    -0.689000000     3.800000000
H    -3.191000000     0.130000000     4.512000000
C    -2.586000000    -2.764000000     2.876000000
C    -3.458000000    -2.627000000     1.824000000
H    -3.510000000    -3.429000000     1.092000000
C    -4.273000000    -1.466000000     1.752000000
O    -4.793000000    -1.220000000     0.502000000
C    -4.149000000    -0.301000000    -0.375000000
C    -4.293000000    -0.841000000    -1.887000000
C    -4.648000000    -2.159000000    -2.123000000
H    -4.821000000    -2.840000000    -1.294000000
C    -4.082000000    -0.020000000    -2.966000000
H    -3.786000000     1.016000000    -2.826000000
O    -4.554000000     1.028000000    -0.327000000
H    -3.065000000    -0.259000000    -0.191000000
C    -4.116000000    -0.473000000     2.739000000
C    -4.794000000     0.935000000     2.586000000
H    -5.093000000     1.276000000     3.579000000
H    -5.723000000     0.797000000     2.028000000
C    -3.886000000     1.858000000     1.822000000
C    -3.785000000     1.860000000     0.401000000
C    -3.169000000     2.861000000    -0.194000000
H    -3.141000000     2.987000000    -1.273000000
C    -2.418000000     3.804000000     0.477000000
O    -1.737000000     4.743000000    -0.254000000
C    -0.347000000     4.349000000    -0.405000000
H    -0.296000000     3.347000000     0.047000000
C     0.072000000     4.277000000    -1.855000000
C     1.445000000     4.290000000    -2.173000000
H     2.158000000     4.473000000    -1.373000000
C    -0.804000000     4.160000000    -2.967000000
H    -1.864000000     4.283000000    -2.759000000
C    -0.386000000     3.934000000    -4.294000000
O    -1.316000000     4.068000000    -5.306000000
C     0.968000000     4.021000000    -4.524000000
H     1.315000000     3.948000000    -5.552000000
C     1.861000000     4.199000000    -3.491000000
O     3.228000000     4.105000000    -3.863000000
C     4.290000000     4.246000000    -3.032000000
C     5.089000000     3.160000000    -2.719000000
H     5.053000000     2.265000000    -3.334000000
C     4.487000000     5.487000000    -2.355000000
H     3.756000000     6.282000000    -2.478000000
C     5.489000000     5.591000000    -1.477000000
H     5.736000000     6.543000000    -1.015000000
C     6.277000000     4.495000000    -1.079000000
H     7.064000000     4.590000000    -0.335000000
C     6.032000000     3.237000000    -1.693000000
O     6.788000000     2.179000000    -1.287000000
C     6.197000000     1.219000000    -0.518000000
C     6.518000000    -0.120000000    -0.748000000
H     7.237000000    -0.477000000    -1.480000000
C     5.933000000    -1.124000000    -0.004000000
O     6.267000000    -2.471000000    -0.289000000
C     5.743000000    -3.568000000     0.426000000
C     4.699000000    -4.424000000    -0.042000000
H     4.281000000    -4.286000000    -1.035000000
C     6.369000000    -3.926000000     1.604000000
H     7.153000000    -3.262000000     1.958000000
C     5.962000000    -5.059000000     2.308000000
H     6.369000000    -5.321000000     3.281000000
C     4.902000000    -5.820000000     1.833000000
H     4.529000000    -6.632000000     2.451000000
C     4.219000000    -5.537000000     0.661000000
O     3.188000000    -6.360000000     0.227000000
C     1.856000000    -5.961000000     0.282000000
C     1.198000000    -6.016000000    -0.903000000
H     1.609000000    -6.524000000    -1.772000000
C    -0.068000000    -5.467000000    -1.003000000
O    -0.822000000    -5.683000000    -2.139000000
C    -2.183000000    -5.849000000    -2.254000000
C    -2.999000000    -5.030000000    -3.054000000
H    -2.712000000    -4.246000000    -3.751000000
C    -2.943000000    -6.733000000    -1.442000000
H    -2.389000000    -7.259000000    -0.669000000
C    -4.312000000    -6.841000000    -1.400000000
H    -4.735000000    -7.553000000    -0.696000000
C    -5.059000000    -6.009000000    -2.192000000
H    -6.145000000    -6.027000000    -2.186000000
C    -4.423000000    -4.981000000    -2.904000000
O    -5.138000000    -4.078000000    -3.598000000
C    -4.854000000    -2.704000000    -3.389000000
C    -4.680000000    -1.834000000    -4.443000000
H    -4.850000000    -2.237000000    -5.438000000
C    -4.230000000    -0.531000000    -4.312000000
O    -4.163000000     0.285000000    -5.402000000
C    -3.953000000     1.607000000    -5.348000000
C    -5.063000000     2.480000000    -5.244000000
H    -6.023000000     1.983000000    -5.136000000
C    -4.951000000     3.868000000    -5.333000000
H    -5.839000000     4.487000000    -5.231000000
C    -3.616000000     4.373000000    -5.340000000
H    -3.549000000     5.453000000    -5.237000000
C    -2.541000000     3.526000000    -5.319000000
C    -2.697000000     2.180000000    -5.448000000
H    -1.824000000     1.535000000    -5.507000000
C    -0.392000000    -0.725000000    -2.886000000
H    -1.012000000    -1.241000000    -3.614000000
C    -0.549000000    -0.773000000    -1.506000000
H    -1.369000000    -1.297000000    -1.022000000
C     0.287000000    -0.081000000    -0.614000000
C     0.019000000    -0.028000000     0.894000000
H    -0.969000000    -0.337000000     1.240000000
H     0.728000000    -0.790000000     1.224000000
H     0.086000000     0.993000000     1.278000000
C     1.389000000     0.634000000    -1.038000000
H     2.030000000     1.051000000    -0.265000000
C     1.680000000     0.596000000    -2.426000000
H     2.546000000     1.128000000    -2.812000000
C     0.830000000    -0.087000000    -3.316000000
C     1.230000000    -0.208000000    -4.837000000
O     2.418000000    -0.400000000    -5.087000000
O     0.337000000    -0.430000000    -5.625000000
O    -2.070000000    -2.550000000    -5.945000000
H    -2.199000000    -2.098000000    -6.779000000
H    -1.583000000    -1.926000000    -5.407000000
O     2.497000000     3.376000000    -7.711000000
H     2.938000000     2.898000000    -7.009000000
H     3.209000000     3.777000000    -8.210000000
O     2.884000000    -5.421000000    -4.339000000
H     1.965000000    -5.619000000    -4.518000000
H     2.931000000    -4.465000000    -4.355000000
O     2.802000000    -2.783000000    -4.321000000
H     3.213000000    -2.402000000    -3.544000000
H     2.460000000    -2.030000000    -4.803000000
O     4.311000000     5.475000000    -6.091000000
H     3.950000000     4.697000000    -5.667000000
H     3.916000000     6.210000000    -5.621000000
O     0.208000000    -2.393000000   -10.074000000
H     1.014000000    -2.321000000   -10.586000000
H     0.496000000    -2.319000000    -9.164000000
O     4.706000000    -0.302000000    -3.543000000
H     3.900000000    -0.285000000    -4.060000000
H     5.230000000     0.419000000    -3.892000000
O     1.444000000     0.777000000    -9.877000000
H     1.974000000     0.200000000   -10.427000000
H     1.180000000     1.488000000   -10.462000000
O     3.917000000     1.845000000    -5.737000000
H     3.239000000     1.196000000    -5.550000000
H     4.737000000     1.352000000    -5.700000000
O    -0.517000000     0.755000000    -7.990000000
H     0.198000000     0.709000000    -8.625000000
H    -0.215000000     0.226000000    -7.251000000
O    -2.136000000    -1.503000000    -8.482000000
H    -1.969000000    -0.629000000    -8.128000000
H    -1.390000000    -1.674000000    -9.058000000
O     0.798000000    -2.446000000    -7.323000000
H     0.314000000    -2.149000000    -6.553000000
H     1.660000000    -2.041000000    -7.236000000
O     2.893000000    -0.507000000    -7.957000000
H     2.562000000    -0.438000000    -7.062000000
H     2.481000000     0.221000000    -8.422000000
O     1.791000000    -5.213000000    -7.122000000
H     1.226000000    -5.633000000    -6.473000000
H     1.385000000    -4.360000000    -7.277000000
O     6.600000000     0.240000000    -5.791000000
H     7.225000000    -0.341000000    -5.358000000
H     6.872000000     0.243000000    -6.709000000
O     5.387000000    -1.740000000    -8.120000000
H     5.426000000    -2.564000000    -7.635000000
H     4.466000000    -1.483000000    -8.083000000
O     6.552000000    -2.436000000    -3.767000000
H     6.180000000    -1.630000000    -3.410000000
H     7.166000000    -2.735000000    -3.096000000
O     3.286000000    -1.328000000   -10.449000000
H     3.282000000    -1.437000000    -9.498000000
H     4.113000000    -1.718000000   -10.731000000
O    -0.555000000     3.593000000    -8.446000000
H    -1.021000000     2.843000000    -8.076000000
H     0.265000000     3.631000000    -7.955000000
