218
-1456.14858
C     3.632000000    -2.166000000     2.324000000
H     3.032000000    -2.992000000     2.697000000
C     3.337000000    -0.829000000     2.662000000
C     4.108000000     0.190000000     2.033000000
H     3.873000000     1.211000000     2.322000000
C     2.096000000    -0.535000000     3.454000000
O     1.681000000    -1.648000000     4.341000000
H     1.257000000    -0.449000000     2.748000000
O     2.131000000     0.711000000     4.191000000
C     1.128000000     1.650000000     4.061000000
C     1.362000000     2.867000000     3.368000000
H     2.370000000     3.001000000     2.983000000
C     0.330000000     3.710000000     3.048000000
O     0.524000000     4.755000000     2.131000000
C    -0.949000000     3.412000000     3.536000000
C    -2.127000000     4.250000000     3.061000000
H    -2.832000000     4.158000000     3.889000000
C    -2.702000000     3.850000000     1.768000000
C    -3.751000000     2.920000000     1.694000000
H    -4.309000000     2.603000000     2.572000000
H    -1.795000000     5.288000000     3.139000000
C    -1.132000000     2.248000000     4.345000000
H    -2.101000000     2.039000000     4.791000000
C    -0.117000000     1.368000000     4.630000000
C    -0.326000000     0.188000000     5.527000000
H    -1.169000000     0.425000000     6.180000000
H     0.588000000     0.055000000     6.110000000
C    -0.683000000    -1.103000000     4.785000000
C    -2.064000000    -1.273000000     4.498000000
H    -2.796000000    -0.553000000     4.854000000
C     0.351000000    -1.935000000     4.345000000
C    -0.084000000    -2.954000000     3.505000000
H     0.694000000    -3.602000000     3.109000000
C    -1.348000000    -3.242000000     3.185000000
O    -1.601000000    -4.303000000     2.364000000
C    -1.807000000    -4.039000000     0.917000000
C    -1.176000000    -5.144000000     0.050000000
C    -1.463000000    -5.252000000    -1.363000000
H    -2.329000000    -4.732000000    -1.763000000
C    -0.136000000    -5.960000000     0.583000000
H    -0.055000000    -5.998000000     1.666000000
O    -3.146000000    -3.927000000     0.646000000
H    -1.219000000    -3.151000000     0.639000000
C    -2.375000000    -2.428000000     3.650000000
C    -3.807000000    -2.716000000     3.153000000
H    -4.554000000    -2.382000000     3.877000000
H    -3.892000000    -3.800000000     3.046000000
C    -4.084000000    -2.035000000     1.898000000
C    -4.534000000    -0.711000000     1.811000000
H    -4.813000000    -0.159000000     2.705000000
C    -3.692000000    -2.669000000     0.693000000
C    -3.831000000    -2.016000000    -0.532000000
H    -3.452000000    -2.523000000    -1.416000000
C    -4.439000000    -0.758000000    -0.606000000
O    -4.408000000    -0.062000000    -1.798000000
C    -3.337000000     0.841000000    -1.968000000
C    -2.685000000     0.702000000    -3.333000000
C    -2.687000000    -0.576000000    -3.997000000
H    -3.170000000    -1.416000000    -3.504000000
C    -1.790000000     1.701000000    -3.747000000
H    -1.540000000     2.567000000    -3.140000000
O    -3.812000000     2.263000000    -1.924000000
H    -2.626000000     0.772000000    -1.130000000
C    -4.782000000    -0.062000000     0.587000000
C    -5.322000000     1.296000000     0.567000000
H    -5.992000000     1.375000000     1.425000000
H    -5.910000000     1.444000000    -0.341000000
C    -4.209000000     2.344000000     0.551000000
C    -3.726000000     2.832000000    -0.689000000
C    -2.689000000     3.781000000    -0.762000000
H    -2.419000000     4.215000000    -1.721000000
C    -2.152000000     4.263000000     0.503000000
O    -1.113000000     5.115000000     0.403000000
C     0.205000000     4.591000000     0.767000000
H     0.182000000     3.553000000     0.404000000
C     1.227000000     5.321000000    -0.050000000
C     2.609000000     5.210000000     0.252000000
H     2.971000000     4.801000000     1.192000000
C     0.809000000     5.708000000    -1.321000000
H    -0.229000000     5.761000000    -1.639000000
C     1.812000000     6.030000000    -2.233000000
O     1.439000000     6.473000000    -3.507000000
C     3.170000000     5.895000000    -1.953000000
H     3.846000000     6.278000000    -2.713000000
C     3.567000000     5.584000000    -0.661000000
O     4.885000000     5.567000000    -0.271000000
C     5.542000000     4.493000000     0.405000000
C     5.197000000     3.188000000     0.088000000
H     4.453000000     2.965000000    -0.672000000
C     6.249000000     4.718000000     1.565000000
H     6.671000000     5.668000000     1.882000000
C     6.809000000     3.722000000     2.324000000
H     7.474000000     3.928000000     3.159000000
C     6.545000000     2.423000000     1.989000000
H     7.009000000     1.575000000     2.488000000
C     5.795000000     2.139000000     0.866000000
O     5.660000000     0.916000000     0.362000000
C     4.952000000    -0.086000000     0.980000000
C     5.188000000    -1.354000000     0.606000000
H     5.856000000    -1.513000000    -0.237000000
C     4.497000000    -2.405000000     1.224000000
O     4.542000000    -3.592000000     0.579000000
C     4.191000000    -4.821000000     1.040000000
C     3.168000000    -5.450000000     0.313000000
H     2.818000000    -5.072000000    -0.644000000
C     4.660000000    -5.321000000     2.257000000
H     5.399000000    -4.712000000     2.772000000
C     4.216000000    -6.578000000     2.778000000
H     4.536000000    -7.007000000     3.725000000
C     3.208000000    -7.193000000     2.022000000
H     2.795000000    -8.110000000     2.435000000
C     2.741000000    -6.685000000     0.855000000
O     1.789000000    -7.410000000     0.275000000
C     0.610000000    -6.820000000    -0.228000000
C     0.345000000    -6.816000000    -1.610000000
H     0.924000000    -7.432000000    -2.293000000
C    -0.770000000    -6.148000000    -2.126000000
O    -1.103000000    -6.270000000    -3.483000000
C    -1.826000000    -5.371000000    -4.155000000
C    -1.364000000    -4.111000000    -4.625000000
H    -0.294000000    -3.925000000    -4.680000000
C    -3.077000000    -5.817000000    -4.418000000
H    -3.485000000    -6.735000000    -4.004000000
C    -3.976000000    -4.978000000    -5.039000000
H    -4.982000000    -5.383000000    -5.112000000
C    -3.544000000    -3.666000000    -5.476000000
H    -4.203000000    -2.948000000    -5.958000000
C    -2.242000000    -3.284000000    -5.288000000
O    -1.769000000    -2.061000000    -5.686000000
C    -1.937000000    -0.783000000    -5.143000000
C    -0.983000000     0.244000000    -5.488000000
H    -0.160000000    -0.038000000    -6.140000000
C    -0.958000000     1.494000000    -4.845000000
O    -0.088000000     2.446000000    -5.363000000
C    -0.223000000     3.810000000    -5.264000000
C    -1.249000000     4.471000000    -5.938000000
H    -1.898000000     3.816000000    -6.513000000
C    -1.334000000     5.877000000    -5.799000000
H    -2.213000000     6.327000000    -6.254000000
C    -0.461000000     6.587000000    -5.000000000
H    -0.368000000     7.654000000    -4.818000000
C     0.559000000     5.876000000    -4.337000000
C     0.718000000     4.524000000    -4.538000000
H     1.466000000     3.992000000    -3.957000000
C     0.600000000    -0.852000000    -2.403000000
H     0.308000000    -1.504000000    -3.222000000
C    -0.363000000    -0.859000000    -1.374000000
H    -1.233000000    -1.509000000    -1.420000000
C    -0.064000000    -0.091000000    -0.232000000
C    -1.074000000     0.120000000     0.825000000
H    -0.551000000    -0.189000000     1.733000000
H    -1.351000000     1.176000000     0.842000000
H    -1.950000000    -0.506000000     0.642000000
C     1.118000000     0.606000000    -0.149000000
H     1.366000000     1.315000000     0.637000000
C     2.021000000     0.627000000    -1.254000000
H     2.905000000     1.256000000    -1.193000000
C     1.767000000    -0.108000000    -2.382000000
C     2.686000000    -0.019000000    -3.622000000
O     3.674000000     0.702000000    -3.582000000
O     2.371000000    -0.600000000    -4.636000000
O     2.442000000     1.269000000    -6.425000000
H     2.562000000     0.465000000    -5.920000000
H     1.771000000     1.755000000    -5.945000000
O     3.005000000    -4.383000000    -5.655000000
H     3.726000000    -4.039000000    -5.129000000
H     3.066000000    -5.333000000    -5.554000000
O     2.564000000    -2.039000000    -6.941000000
H     2.556000000    -1.627000000    -6.077000000
H     2.801000000    -2.951000000    -6.770000000
O     5.753000000    -6.096000000    -1.192000000
H     5.366000000    -5.285000000    -1.523000000
H     5.774000000    -6.678000000    -1.951000000
O     6.854000000    -2.692000000    -7.457000000
H     6.376000000    -3.401000000    -7.887000000
H     6.987000000    -2.041000000    -8.146000000
O     5.158000000    -0.425000000    -8.685000000
H     5.331000000     0.437000000    -9.063000000
H     5.246000000    -0.296000000    -7.741000000
O     0.042000000    -2.595000000    -8.210000000
H    -0.745000000    -2.149000000    -7.899000000
H     0.756000000    -2.199000000    -7.710000000
O     4.277000000     3.300000000    -4.059000000
H     3.935000000     3.750000000    -3.286000000
H     3.966000000     2.399000000    -3.969000000
O     3.729000000     4.037000000    -6.921000000
H     3.641000000     3.149000000    -6.576000000
H     2.838000000     4.292000000    -7.158000000
O     2.277000000     0.685000000    -9.672000000
H     2.324000000     0.449000000    -8.746000000
H     1.912000000    -0.090000000   -10.099000000
O     5.982000000    -3.574000000    -2.484000000
H     5.589000000    -3.545000000    -3.356000000
H     6.924000000    -3.614000000    -2.647000000
O     8.645000000    -1.352000000    -5.921000000
H     8.021000000    -1.906000000    -6.391000000
H     8.537000000    -0.485000000    -6.311000000
O     7.808000000     1.123000000    -7.040000000
H     8.534000000     1.707000000    -6.821000000
H     7.097000000     1.396000000    -6.460000000
O     5.726000000     0.538000000    -5.464000000
H     4.814000000     0.705000000    -5.224000000
H     6.129000000     0.212000000    -4.660000000
O     7.144000000     3.596000000    -5.361000000
H     6.265000000     3.363000000    -5.062000000
H     7.004000000     4.318000000    -5.974000000
O     5.344000000    -2.641000000    -4.921000000
H     5.870000000    -2.804000000    -5.704000000
H     4.924000000    -1.797000000    -5.086000000
O     6.180000000    -0.215000000    -2.753000000
H     5.988000000    -1.150000000    -2.822000000
H     5.321000000     0.207000000    -2.761000000
O     8.560000000     0.297000000    -1.242000000
H     7.866000000     0.287000000    -1.901000000
H     8.559000000    -0.589000000    -0.880000000
O     0.877000000    -5.187000000    -7.763000000
H     1.611000000    -5.034000000    -7.168000000
H     0.379000000    -4.370000000    -7.745000000
