218
-1452.08245
C     2.745000000    -0.479000000     3.958000000
H     2.162000000    -1.396000000     3.930000000
C     2.165000000     0.763000000     4.161000000
C     2.890000000     1.898000000     4.244000000
H     2.350000000     2.841000000     4.223000000
C     0.600000000     0.689000000     4.122000000
O     0.037000000    -0.393000000     4.929000000
H     0.284000000     0.709000000     3.069000000
O     0.037000000     1.909000000     4.700000000
C    -1.020000000     2.466000000     3.945000000
C    -0.635000000     3.356000000     2.965000000
H     0.431000000     3.554000000     2.895000000
C    -1.532000000     3.900000000     2.100000000
O    -1.006000000     4.674000000     1.063000000
C    -2.894000000     3.509000000     2.087000000
C    -3.884000000     4.114000000     1.058000000
H    -4.856000000     4.186000000     1.550000000
C    -3.714000000     3.298000000    -0.209000000
C    -4.577000000     2.217000000    -0.370000000
H    -5.411000000     2.085000000     0.315000000
H    -3.635000000     5.155000000     0.845000000
C    -3.281000000     2.511000000     3.011000000
H    -4.322000000     2.202000000     3.044000000
C    -2.324000000     1.992000000     3.916000000
C    -2.742000000     0.867000000     4.875000000
H    -3.827000000     0.829000000     4.987000000
H    -2.344000000     1.067000000     5.872000000
C    -2.317000000    -0.470000000     4.356000000
C    -3.249000000    -1.107000000     3.536000000
H    -4.220000000    -0.667000000     3.322000000
C    -1.061000000    -1.059000000     4.482000000
C    -0.734000000    -2.283000000     3.961000000
H     0.293000000    -2.638000000     3.940000000
C    -1.688000000    -2.973000000     3.200000000
O    -1.276000000    -4.062000000     2.517000000
C    -0.992000000    -3.988000000     1.157000000
C     0.180000000    -4.820000000     0.632000000
C     0.337000000    -5.118000000    -0.759000000
H    -0.338000000    -4.746000000    -1.526000000
C     1.238000000    -5.116000000     1.489000000
H     1.146000000    -4.773000000     2.517000000
O    -2.120000000    -4.444000000     0.333000000
H    -0.832000000    -2.923000000     0.932000000
C    -2.979000000    -2.417000000     3.081000000
C    -3.945000000    -3.169000000     2.171000000
H    -4.972000000    -3.010000000     2.506000000
H    -3.714000000    -4.226000000     2.317000000
C    -3.852000000    -2.758000000     0.731000000
C    -4.667000000    -1.688000000     0.192000000
H    -5.419000000    -1.204000000     0.810000000
C    -2.974000000    -3.438000000    -0.118000000
C    -2.922000000    -3.075000000    -1.460000000
H    -2.271000000    -3.598000000    -2.157000000
C    -3.587000000    -1.935000000    -1.932000000
O    -3.360000000    -1.539000000    -3.212000000
C    -2.538000000    -0.415000000    -3.348000000
C    -1.606000000    -0.606000000    -4.574000000
C    -0.993000000    -1.835000000    -4.720000000
H    -1.184000000    -2.661000000    -4.039000000
C    -1.378000000     0.478000000    -5.456000000
H    -1.789000000     1.469000000    -5.281000000
O    -3.246000000     0.810000000    -3.461000000
H    -1.929000000    -0.417000000    -2.431000000
C    -4.478000000    -1.209000000    -1.112000000
C    -5.279000000     0.022000000    -1.494000000
H    -6.188000000     0.130000000    -0.899000000
H    -5.731000000    -0.003000000    -2.488000000
C    -4.473000000     1.304000000    -1.437000000
C    -3.500000000     1.603000000    -2.347000000
C    -2.663000000     2.704000000    -2.204000000
H    -1.898000000     2.802000000    -2.970000000
C    -2.714000000     3.507000000    -1.101000000
O    -1.677000000     4.381000000    -1.081000000
C    -0.639000000     4.054000000    -0.221000000
H    -0.721000000     2.986000000     0.027000000
C     0.722000000     4.372000000    -0.828000000
C     1.761000000     4.702000000     0.038000000
H     1.561000000     4.837000000     1.098000000
C     0.998000000     4.206000000    -2.201000000
H     0.213000000     3.937000000    -2.903000000
C     2.313000000     4.289000000    -2.675000000
O     2.640000000     4.163000000    -4.017000000
C     3.267000000     4.759000000    -1.832000000
H     4.248000000     5.018000000    -2.221000000
C     3.000000000     4.932000000    -0.477000000
O     4.062000000     5.275000000     0.306000000
C     3.973000000     5.302000000     1.696000000
C     4.661000000     4.263000000     2.237000000
H     4.953000000     3.409000000     1.631000000
C     3.437000000     6.346000000     2.475000000
H     3.242000000     7.270000000     1.937000000
C     3.493000000     6.250000000     3.862000000
H     3.243000000     7.024000000     4.583000000
C     3.967000000     5.044000000     4.394000000
H     3.901000000     4.920000000     5.472000000
C     4.583000000     4.148000000     3.605000000
O     5.060000000     2.984000000     4.222000000
C     4.257000000     1.856000000     4.190000000
C     4.878000000     0.622000000     4.037000000
H     5.959000000     0.694000000     3.943000000
C     4.157000000    -0.547000000     3.827000000
O     4.822000000    -1.760000000     3.549000000
C     4.384000000    -3.021000000     3.777000000
C     4.260000000    -3.829000000     2.678000000
H     4.456000000    -3.465000000     1.673000000
C     4.035000000    -3.397000000     5.061000000
H     4.304000000    -2.798000000     5.927000000
C     3.436000000    -4.589000000     5.251000000
H     3.175000000    -4.846000000     6.274000000
C     3.298000000    -5.469000000     4.220000000
H     2.966000000    -6.462000000     4.510000000
C     3.687000000    -5.099000000     2.915000000
O     3.420000000    -6.052000000     1.942000000
C     2.366000000    -5.749000000     1.088000000
C     2.371000000    -6.206000000    -0.236000000
H     3.218000000    -6.812000000    -0.547000000
C     1.420000000    -5.883000000    -1.179000000
O     1.610000000    -6.352000000    -2.495000000
C     0.831000000    -5.984000000    -3.603000000
C     1.138000000    -4.754000000    -4.192000000
H     2.041000000    -4.246000000    -3.865000000
C    -0.103000000    -6.883000000    -4.171000000
H    -0.207000000    -7.846000000    -3.678000000
C    -0.740000000    -6.619000000    -5.325000000
H    -1.307000000    -7.379000000    -5.856000000
C    -0.622000000    -5.290000000    -5.791000000
H    -1.099000000    -4.914000000    -6.693000000
C     0.312000000    -4.402000000    -5.238000000
O     0.508000000    -3.251000000    -5.905000000
C    -0.061000000    -1.985000000    -5.700000000
C     0.251000000    -0.881000000    -6.525000000
H     1.012000000    -0.974000000    -7.296000000
C    -0.384000000     0.390000000    -6.377000000
O    -0.088000000     1.483000000    -7.153000000
C     0.234000000     2.630000000    -6.516000000
C    -0.205000000     3.816000000    -7.075000000
H    -0.972000000     3.733000000    -7.841000000
C     0.192000000     5.053000000    -6.580000000
H    -0.136000000     5.916000000    -7.154000000
C     1.030000000     5.123000000    -5.444000000
H     1.263000000     6.074000000    -4.973000000
C     1.686000000     3.965000000    -4.982000000
C     1.245000000     2.699000000    -5.524000000
H     1.634000000     1.830000000    -5.001000000
C     2.707000000    -1.514000000    -0.297000000
H     3.133000000    -2.499000000    -0.475000000
C     1.346000000    -1.373000000    -0.090000000
H     0.768000000    -2.293000000    -0.126000000
C     0.817000000    -0.133000000     0.346000000
C    -0.703000000    -0.024000000     0.412000000
H    -1.069000000     0.677000000    -0.342000000
H    -1.232000000    -0.972000000     0.294000000
H    -0.987000000     0.425000000     1.366000000
C     1.660000000     0.964000000     0.414000000
H     1.264000000     1.920000000     0.746000000
C     3.027000000     0.820000000     0.206000000
H     3.720000000     1.656000000     0.166000000
C     3.589000000    -0.423000000    -0.107000000
C     5.036000000    -0.668000000    -0.383000000
O     5.939000000     0.170000000    -0.154000000
O     5.358000000    -1.743000000    -0.783000000
O     3.092000000    -0.326000000    -4.516000000
H     2.344000000    -0.209000000    -3.931000000
H     3.574000000    -1.065000000    -4.145000000
O     5.621000000    -4.371000000    -0.451000000
H     5.499000000    -3.424000000    -0.526000000
H     6.315000000    -4.472000000     0.200000000
O     6.402000000    -4.336000000    -4.600000000
H     6.323000000    -4.821000000    -5.421000000
H     5.778000000    -4.760000000    -4.011000000
O     4.569000000     1.739000000    -4.932000000
H     4.154000000     0.917000000    -4.670000000
H     4.844000000     2.141000000    -4.108000000
O     9.000000000    -1.461000000    -4.610000000
H     8.091000000    -1.341000000    -4.884000000
H     8.945000000    -1.652000000    -3.674000000
O     5.796000000     1.846000000    -2.080000000
H     6.744000000     1.915000000    -2.195000000
H     5.686000000     1.203000000    -1.379000000
O     7.957000000    -1.945000000    -1.727000000
H     7.075000000    -2.113000000    -2.061000000
H     7.817000000    -1.598000000    -0.846000000
O     8.001000000    -1.226000000     4.221000000
H     8.032000000    -0.348000000     4.602000000
H     7.831000000    -1.804000000     4.964000000
O     9.214000000    -5.504000000    -1.446000000
H     8.866000000    -4.714000000    -1.033000000
H     9.290000000    -5.276000000    -2.373000000
O     7.780000000    -1.464000000     1.230000000
H     7.888000000    -1.370000000     2.177000000
H     7.009000000    -0.936000000     1.024000000
O     4.532000000    -5.159000000    -2.977000000
H     4.244000000    -6.053000000    -2.792000000
H     4.764000000    -4.800000000    -2.120000000
O     7.092000000     4.186000000    -0.900000000
H     6.623000000     3.355000000    -0.970000000
H     7.683000000     4.067000000    -0.157000000
O     8.378000000     1.219000000    -0.410000000
H     7.545000000     0.767000000    -0.276000000
H     8.338000000     1.975000000     0.176000000
O     9.914000000     1.928000000    -2.660000000
H     9.503000000     1.837000000    -1.800000000
H     9.756000000     2.839000000    -2.906000000
O     1.246000000     0.085000000    -2.689000000
H     0.371000000    -0.205000000    -2.945000000
H     1.212000000     0.135000000    -1.733000000
O    10.682000000    -2.356000000    -1.722000000
H     9.728000000    -2.294000000    -1.768000000
H    10.945000000    -1.615000000    -1.176000000
O     4.090000000    -2.309000000    -3.141000000
H     4.591000000    -2.121000000    -2.348000000
H     3.992000000    -3.262000000    -3.143000000
O     6.320000000    -1.541000000    -5.199000000
H     5.514000000    -1.588000000    -5.714000000
H     6.384000000    -2.398000000    -4.777000000
O     7.897000000    -4.275000000     1.243000000
H     7.862000000    -3.321000000     1.168000000
H     7.950000000    -4.439000000     2.184000000
