218
-1480.11058
C     2.429000000    -1.716000000     3.873000000
H     1.940000000    -2.616000000     3.508000000
C     1.704000000    -0.759000000     4.517000000
C     2.315000000     0.434000000     4.993000000
H     1.688000000     1.208000000     5.429000000
C     0.202000000    -0.865000000     4.345000000
O    -0.274000000    -2.223000000     4.498000000
H    -0.028000000    -0.682000000     3.285000000
O    -0.532000000     0.101000000     5.166000000
C    -1.537000000     0.828000000     4.523000000
C    -1.199000000     2.034000000     3.952000000
H    -0.233000000     2.457000000     4.214000000
C    -2.153000000     2.664000000     3.156000000
O    -1.772000000     3.827000000     2.542000000
C    -3.366000000     2.106000000     2.795000000
C    -4.308000000     2.737000000     1.731000000
H    -5.325000000     2.398000000     1.942000000
C    -3.957000000     2.492000000     0.270000000
C    -4.618000000     1.473000000    -0.461000000
H    -5.309000000     0.902000000     0.153000000
H    -4.258000000     3.815000000     1.897000000
C    -3.651000000     0.831000000     3.298000000
H    -4.548000000     0.390000000     2.871000000
C    -2.804000000     0.186000000     4.234000000
C    -3.112000000    -1.252000000     4.597000000
H    -4.200000000    -1.343000000     4.589000000
H    -2.683000000    -1.618000000     5.532000000
C    -2.550000000    -2.184000000     3.590000000
C    -3.378000000    -2.530000000     2.543000000
H    -4.379000000    -2.112000000     2.467000000
C    -1.222000000    -2.708000000     3.598000000
C    -0.879000000    -3.617000000     2.604000000
H     0.105000000    -4.080000000     2.616000000
C    -1.755000000    -4.014000000     1.651000000
O    -1.299000000    -4.847000000     0.662000000
C    -0.931000000    -4.319000000    -0.651000000
C     0.358000000    -4.811000000    -1.117000000
C     0.823000000    -4.599000000    -2.428000000
H     0.105000000    -4.195000000    -3.137000000
C     1.288000000    -5.361000000    -0.195000000
H     1.054000000    -5.393000000     0.866000000
O    -2.012000000    -4.566000000    -1.559000000
H    -0.771000000    -3.234000000    -0.562000000
C    -3.056000000    -3.479000000     1.552000000
C    -4.083000000    -3.736000000     0.424000000
H    -5.087000000    -3.613000000     0.835000000
H    -3.979000000    -4.798000000     0.192000000
C    -3.787000000    -3.054000000    -0.905000000
C    -4.506000000    -1.929000000    -1.176000000
H    -5.334000000    -1.651000000    -0.530000000
C    -2.815000000    -3.449000000    -1.854000000
C    -2.440000000    -2.605000000    -2.862000000
H    -1.630000000    -2.868000000    -3.537000000
C    -3.167000000    -1.475000000    -3.079000000
O    -2.705000000    -0.628000000    -4.072000000
C    -2.046000000     0.681000000    -3.778000000
C    -0.866000000     0.933000000    -4.780000000
C    -0.306000000    -0.172000000    -5.493000000
H    -0.783000000    -1.142000000    -5.381000000
C    -0.213000000     2.179000000    -4.742000000
H    -0.539000000     3.061000000    -4.198000000
O    -3.014000000     1.766000000    -3.718000000
H    -1.483000000     0.661000000    -2.833000000
C    -4.262000000    -1.191000000    -2.301000000
C    -5.033000000     0.010000000    -2.501000000
H    -6.018000000     0.013000000    -2.028000000
H    -5.158000000     0.161000000    -3.575000000
C    -4.389000000     1.210000000    -1.788000000
C    -3.450000000     1.996000000    -2.440000000
C    -2.821000000     3.078000000    -1.825000000
H    -2.203000000     3.747000000    -2.419000000
C    -3.084000000     3.307000000    -0.479000000
O    -2.296000000     4.260000000     0.170000000
C    -1.314000000     3.724000000     1.139000000
H    -1.016000000     2.677000000     0.982000000
C    -0.095000000     4.531000000     0.899000000
C     0.800000000     4.597000000     1.895000000
H     0.619000000     4.054000000     2.819000000
C     0.315000000     5.096000000    -0.367000000
H    -0.352000000     5.000000000    -1.221000000
C     1.516000000     5.706000000    -0.512000000
O     2.065000000     6.231000000    -1.655000000
C     2.365000000     5.822000000     0.593000000
H     3.240000000     6.466000000     0.630000000
C     2.011000000     5.304000000     1.845000000
O     2.747000000     5.705000000     2.885000000
C     3.110000000     5.063000000     4.045000000
C     3.532000000     3.718000000     3.973000000
H     3.640000000     3.205000000     3.020000000
C     3.184000000     5.738000000     5.224000000
H     2.941000000     6.794000000     5.316000000
C     3.528000000     5.070000000     6.392000000
H     3.726000000     5.533000000     7.356000000
C     3.851000000     3.689000000     6.391000000
H     4.277000000     3.190000000     7.258000000
C     3.817000000     3.024000000     5.135000000
O     4.352000000     1.751000000     5.042000000
C     3.612000000     0.630000000     4.773000000
C     4.411000000    -0.421000000     4.258000000
H     5.477000000    -0.244000000     4.139000000
C     3.831000000    -1.525000000     3.737000000
O     4.639000000    -2.587000000     3.396000000
C     4.155000000    -3.847000000     3.137000000
C     3.967000000    -4.350000000     1.866000000
H     4.367000000    -3.870000000     0.976000000
C     3.921000000    -4.662000000     4.244000000
H     4.057000000    -4.334000000     5.272000000
C     3.342000000    -5.907000000     4.043000000
H     3.010000000    -6.513000000     4.883000000
C     3.136000000    -6.415000000     2.816000000
H     2.792000000    -7.430000000     2.633000000
C     3.437000000    -5.636000000     1.698000000
O     3.462000000    -6.140000000     0.409000000
C     2.572000000    -5.749000000    -0.609000000
C     2.958000000    -5.522000000    -1.887000000
H     4.013000000    -5.713000000    -2.063000000
C     2.144000000    -4.936000000    -2.836000000
O     2.665000000    -4.599000000    -4.031000000
C     1.791000000    -4.091000000    -5.007000000
C     2.025000000    -2.832000000    -5.573000000
H     2.847000000    -2.227000000    -5.199000000
C     0.768000000    -4.886000000    -5.491000000
H     0.475000000    -5.878000000    -5.159000000
C    -0.033000000    -4.371000000    -6.568000000
H    -0.794000000    -5.001000000    -7.021000000
C     0.206000000    -3.091000000    -7.052000000
H    -0.438000000    -2.656000000    -7.813000000
C     1.249000000    -2.337000000    -6.553000000
O     1.384000000    -1.042000000    -6.919000000
C     0.904000000    -0.034000000    -6.224000000
C     1.457000000     1.275000000    -6.314000000
H     2.305000000     1.474000000    -6.964000000
C     0.898000000     2.321000000    -5.606000000
O     1.521000000     3.515000000    -5.710000000
C     1.270000000     4.717000000    -5.008000000
C     0.647000000     5.784000000    -5.583000000
H     0.364000000     5.762000000    -6.632000000
C     0.557000000     6.992000000    -4.898000000
H     0.088000000     7.768000000    -5.497000000
C     0.987000000     7.168000000    -3.590000000
H     0.785000000     8.090000000    -3.051000000
C     1.524000000     6.073000000    -2.938000000
C     1.698000000     4.915000000    -3.643000000
H     2.296000000     4.135000000    -3.178000000
C     2.132000000    -1.293000000    -0.733000000
H     2.709000000    -1.950000000    -1.378000000
C     0.793000000    -1.047000000    -0.850000000
H     0.166000000    -1.413000000    -1.659000000
C     0.124000000    -0.303000000     0.133000000
C    -1.359000000    -0.170000000     0.164000000
H    -1.753000000    -0.695000000    -0.709000000
H    -1.795000000    -0.472000000     1.118000000
H    -1.697000000     0.854000000    -0.007000000
C     0.856000000     0.402000000     1.088000000
H     0.326000000     0.996000000     1.829000000
C     2.247000000     0.300000000     1.120000000
H     2.793000000     0.900000000     1.844000000
C     2.910000000    -0.493000000     0.143000000
C     4.394000000    -0.559000000     0.144000000
O     5.064000000     0.406000000     0.443000000
O     4.933000000    -1.524000000    -0.425000000
O    11.163000000    -0.392000000    -0.431000000
H    11.200000000     0.526000000    -0.164000000
H    10.414000000    -0.750000000     0.046000000
O     6.463000000    -4.657000000    -2.695000000
H     7.412000000    -4.584000000    -2.794000000
H     6.178000000    -5.141000000    -3.470000000
O     7.083000000     1.039000000     2.076000000
H     6.290000000     0.962000000     1.546000000
H     6.803000000     1.513000000     2.859000000
O     5.345000000     4.763000000     0.754000000
H     5.275000000     4.076000000     0.090000000
H     6.283000000     4.825000000     0.936000000
O     5.540000000     0.105000000    -4.544000000
H     5.527000000    -0.777000000    -4.172000000
H     4.942000000     0.607000000    -3.991000000
O     6.005000000     2.667000000    -0.861000000
H     6.004000000     1.891000000    -0.300000000
H     6.802000000     2.584000000    -1.383000000
O     7.498000000     0.043000000    -0.764000000
H     8.115000000     0.068000000    -0.033000000
H     6.652000000    -0.143000000    -0.357000000
O     8.663000000    -3.311000000     1.659000000
H     8.064000000    -3.118000000     0.937000000
H     8.964000000    -4.203000000     1.487000000
O     7.151000000     2.367000000     4.540000000
H     6.622000000     3.163000000     4.492000000
H     6.943000000     1.991000000     5.395000000
O     8.160000000     1.931000000    -2.608000000
H     7.583000000     1.632000000    -3.311000000
H     8.084000000     1.257000000    -1.933000000
O     8.930000000    -1.702000000    -2.490000000
H     8.330000000    -2.401000000    -2.230000000
H     8.640000000    -0.939000000    -1.989000000
O     5.036000000    -2.237000000    -3.036000000
H     5.327000000    -3.140000000    -2.906000000
H     4.814000000    -1.929000000    -2.157000000
O     9.237000000    -0.560000000     1.661000000
H     8.520000000     0.013000000     1.932000000
H     8.952000000    -1.438000000     1.914000000
O     9.055000000     3.119000000     2.233000000
H     8.791000000     2.368000000     2.764000000
H     9.545000000     2.737000000     1.505000000
O     6.883000000    -3.186000000    -0.326000000
H     6.188000000    -2.530000000    -0.277000000
H     6.541000000    -3.854000000    -0.920000000
O     7.223000000    -2.960000000     4.067000000
H     6.282000000    -3.017000000     3.901000000
H     7.609000000    -2.798000000     3.206000000
O     8.690000000    -0.578000000    -4.984000000
H     8.735000000    -0.849000000    -4.068000000
H     8.155000000    -1.250000000    -5.407000000
O     4.471000000     2.143000000    -3.157000000
H     3.681000000     1.791000000    -2.747000000
H     5.011000000     2.437000000    -2.423000000
O     1.988000000     2.185000000    -1.529000000
H     1.308000000     2.758000000    -1.176000000
H     1.953000000     1.404000000    -0.976000000
