218
-1458.42317
C     2.275000000    -3.275000000     3.317000000
H     1.847000000    -4.117000000     2.778000000
C     1.410000000    -2.253000000     3.847000000
C     2.012000000    -1.127000000     4.362000000
H     1.452000000    -0.241000000     4.650000000
C    -0.064000000    -2.324000000     3.538000000
O    -0.551000000    -3.695000000     3.303000000
H    -0.331000000    -1.766000000     2.628000000
O    -0.771000000    -1.681000000     4.557000000
C    -1.762000000    -0.831000000     4.114000000
C    -1.476000000     0.564000000     4.149000000
H    -0.526000000     0.957000000     4.505000000
C    -2.330000000     1.469000000     3.592000000
O    -1.883000000     2.780000000     3.514000000
C    -3.554000000     1.027000000     3.119000000
C    -4.570000000     1.986000000     2.409000000
H    -5.559000000     1.521000000     2.417000000
C    -4.146000000     2.362000000     0.960000000
C    -4.645000000     1.583000000    -0.071000000
H    -5.200000000     0.679000000     0.168000000
H    -4.656000000     2.913000000     2.980000000
C    -3.894000000    -0.291000000     3.148000000
H    -4.814000000    -0.571000000     2.642000000
C    -2.973000000    -1.247000000     3.588000000
C    -3.298000000    -2.712000000     3.603000000
H    -4.369000000    -2.885000000     3.732000000
H    -2.937000000    -3.306000000     4.445000000
C    -2.778000000    -3.377000000     2.323000000
C    -3.600000000    -3.489000000     1.195000000
H    -4.596000000    -3.057000000     1.257000000
C    -1.477000000    -3.904000000     2.273000000
C    -0.995000000    -4.436000000     1.093000000
H    -0.013000000    -4.893000000     1.006000000
C    -1.807000000    -4.591000000    -0.053000000
O    -1.162000000    -5.004000000    -1.213000000
C    -0.630000000    -3.995000000    -2.091000000
C     0.801000000    -4.228000000    -2.496000000
C     1.302000000    -3.469000000    -3.524000000
H     0.709000000    -2.628000000    -3.874000000
C     1.636000000    -5.112000000    -1.793000000
H     1.365000000    -5.657000000    -0.892000000
O    -1.548000000    -3.819000000    -3.203000000
H    -0.699000000    -3.047000000    -1.538000000
C    -3.091000000    -4.040000000    -0.010000000
C    -3.941000000    -4.022000000    -1.340000000
H    -5.007000000    -4.048000000    -1.104000000
H    -3.708000000    -4.933000000    -1.895000000
C    -3.586000000    -2.774000000    -2.139000000
C    -4.278000000    -1.556000000    -2.081000000
H    -5.025000000    -1.486000000    -1.295000000
C    -2.438000000    -2.757000000    -3.000000000
C    -2.163000000    -1.574000000    -3.668000000
H    -1.291000000    -1.500000000    -4.314000000
C    -2.919000000    -0.448000000    -3.587000000
O    -2.389000000     0.719000000    -4.085000000
C    -1.788000000     1.696000000    -3.162000000
C    -0.478000000     2.272000000    -3.772000000
C     0.228000000     1.595000000    -4.755000000
H    -0.144000000     0.635000000    -5.104000000
C     0.001000000     3.465000000    -3.226000000
H    -0.573000000     3.942000000    -2.435000000
O    -2.729000000     2.735000000    -2.908000000
H    -1.505000000     1.194000000    -2.224000000
C    -3.917000000    -0.415000000    -2.698000000
C    -4.744000000     0.840000000    -2.405000000
H    -5.759000000     0.594000000    -2.088000000
H    -4.806000000     1.347000000    -3.370000000
C    -4.230000000     1.757000000    -1.336000000
C    -3.218000000     2.687000000    -1.634000000
C    -2.756000000     3.547000000    -0.583000000
H    -2.024000000     4.336000000    -0.733000000
C    -3.220000000     3.339000000     0.719000000
O    -2.536000000     4.044000000     1.706000000
C    -1.450000000     3.360000000     2.298000000
H    -1.138000000     2.623000000     1.543000000
C    -0.319000000     4.369000000     2.506000000
C     0.892000000     4.014000000     3.145000000
H     0.966000000     3.089000000     3.712000000
C    -0.357000000     5.607000000     1.848000000
H    -1.148000000     5.817000000     1.132000000
C     0.757000000     6.456000000     1.770000000
O     0.784000000     7.571000000     0.947000000
C     1.905000000     6.090000000     2.469000000
H     2.836000000     6.638000000     2.356000000
C     1.995000000     4.867000000     3.108000000
O     3.147000000     4.621000000     3.872000000
C     3.200000000     3.606000000     4.738000000
C     3.607000000     2.331000000     4.402000000
H     3.876000000     2.211000000     3.356000000
C     2.816000000     3.889000000     6.040000000
H     2.468000000     4.893000000     6.270000000
C     2.857000000     2.905000000     7.046000000
H     2.368000000     3.119000000     7.993000000
C     3.289000000     1.653000000     6.697000000
H     3.378000000     0.844000000     7.417000000
C     3.647000000     1.328000000     5.386000000
O     4.067000000     0.112000000     4.902000000
C     3.408000000    -1.005000000     4.401000000
C     4.182000000    -2.014000000     3.957000000
H     5.268000000    -1.977000000     3.993000000
C     3.621000000    -3.139000000     3.402000000
O     4.460000000    -4.201000000     3.024000000
C     4.056000000    -5.219000000     2.172000000
C     4.108000000    -5.047000000     0.730000000
H     4.486000000    -4.132000000     0.281000000
C     3.597000000    -6.456000000     2.669000000
H     3.573000000    -6.629000000     3.742000000
C     3.081000000    -7.422000000     1.830000000
H     2.692000000    -8.332000000     2.280000000
C     3.176000000    -7.339000000     0.494000000
H     2.920000000    -8.213000000    -0.100000000
C     3.692000000    -6.115000000    -0.042000000
O     3.735000000    -6.033000000    -1.391000000
C     2.949000000    -5.156000000    -2.122000000
C     3.533000000    -4.396000000    -3.117000000
H     4.595000000    -4.352000000    -3.347000000
C     2.680000000    -3.606000000    -3.818000000
O     3.225000000    -2.641000000    -4.633000000
C     2.535000000    -1.948000000    -5.616000000
C     2.594000000    -0.539000000    -5.555000000
H     3.041000000     0.087000000    -4.787000000
C     2.076000000    -2.560000000    -6.835000000
H     2.122000000    -3.631000000    -7.017000000
C     1.523000000    -1.796000000    -7.920000000
H     1.155000000    -2.269000000    -8.827000000
C     1.511000000    -0.408000000    -7.716000000
H     1.026000000     0.258000000    -8.425000000
C     1.989000000     0.245000000    -6.572000000
O     1.977000000     1.625000000    -6.436000000
C     1.372000000     2.229000000    -5.285000000
C     1.889000000     3.395000000    -4.737000000
H     2.807000000     3.817000000    -5.141000000
C     1.229000000     4.041000000    -3.681000000
O     1.792000000     5.073000000    -2.970000000
C     1.013000000     6.052000000    -2.377000000
C    -0.115000000     6.662000000    -2.939000000
H    -0.388000000     6.476000000    -3.975000000
C    -0.790000000     7.629000000    -2.266000000
H    -1.588000000     8.192000000    -2.745000000
C    -0.407000000     8.131000000    -1.026000000
H    -0.997000000     8.820000000    -0.427000000
C     0.603000000     7.424000000    -0.405000000
C     1.316000000     6.451000000    -1.062000000
H     2.131000000     5.923000000    -0.573000000
C     1.973000000    -0.597000000    -1.469000000
H     2.258000000    -0.762000000    -2.505000000
C     0.635000000    -0.582000000    -1.245000000
H     0.012000000    -0.735000000    -2.123000000
C     0.087000000    -0.455000000     0.027000000
C    -1.420000000    -0.528000000     0.249000000
H    -1.868000000    -1.137000000    -0.538000000
H    -1.579000000    -1.065000000     1.187000000
H    -1.903000000     0.452000000     0.285000000
C     0.983000000    -0.258000000     1.117000000
H     0.520000000    -0.119000000     2.091000000
C     2.422000000    -0.231000000     0.866000000
H     3.189000000    -0.132000000     1.629000000
C     2.877000000    -0.385000000    -0.483000000
C     4.361000000    -0.441000000    -0.789000000
O     5.096000000    -0.535000000     0.136000000
O     4.797000000    -0.465000000    -1.941000000
O     7.660000000    -5.299000000     0.541000000
H     7.262000000    -5.218000000     1.408000000
H     7.664000000    -4.407000000     0.196000000
O     9.001000000     1.390000000    -3.366000000
H     8.616000000     1.610000000    -4.214000000
H     8.741000000     2.109000000    -2.791000000
O     4.141000000     4.182000000     0.782000000
H     3.365000000     3.657000000     0.585000000
H     4.189000000     4.191000000     1.738000000
O     4.938000000     5.323000000    -1.651000000
H     4.572000000     5.020000000    -0.820000000
H     5.885000000     5.331000000    -1.507000000
O     6.633000000     3.114000000    -0.920000000
H     5.899000000     3.282000000    -0.329000000
H     6.264000000     2.563000000    -1.610000000
O     9.431000000    -2.340000000    -4.108000000
H     9.739000000    -1.684000000    -4.734000000
H     8.477000000    -2.309000000    -4.178000000
O     6.162000000    -2.066000000    -3.437000000
H     5.838000000    -2.155000000    -4.333000000
H     5.573000000    -1.429000000    -3.032000000
O     1.864000000     2.914000000    -0.516000000
H     2.233000000     3.013000000    -1.393000000
H     1.522000000     2.021000000    -0.499000000
O     7.441000000     0.258000000    -0.530000000
H     6.640000000    -0.035000000    -0.095000000
H     7.474000000    -0.253000000    -1.339000000
O     7.655000000    -3.733000000    -1.807000000
H     7.745000000    -4.617000000    -2.162000000
H     7.147000000    -3.260000000    -2.466000000
O     6.415000000     3.001000000     2.968000000
H     6.589000000     2.827000000     3.893000000
H     6.039000000     2.185000000     2.638000000
O     9.617000000     1.078000000     0.798000000
H     8.819000000     0.648000000     0.493000000
H     9.730000000     1.821000000     0.206000000
O     7.799000000     0.501000000     4.341000000
H     8.646000000     0.481000000     3.895000000
H     7.157000000     0.381000000     3.641000000
O     9.305000000     3.390000000    -0.974000000
H     9.385000000     4.136000000    -0.380000000
H     8.371000000     3.180000000    -0.972000000
O     6.846000000    -2.606000000     0.468000000
H     6.216000000    -1.895000000     0.356000000
H     7.311000000    -2.650000000    -0.368000000
O     8.287000000    -2.912000000     3.525000000
H     7.444000000    -3.147000000     3.139000000
H     8.767000000    -2.488000000     2.813000000
O     5.479000000     0.672000000     2.313000000
H     5.444000000     0.231000000     1.464000000
H     4.829000000     0.214000000     2.847000000
O     5.116000000     3.431000000    -4.955000000
H     4.879000000     3.033000000    -5.792000000
H     5.307000000     2.688000000    -4.382000000
O     5.889000000     1.413000000    -3.075000000
H     5.444000000     0.712000000    -2.599000000
H     6.214000000     0.992000000    -3.871000000
