218
-1484.31465
C     1.713000000    -3.591000000     3.314000000
H     1.395000000    -4.191000000     2.465000000
C     0.925000000    -2.560000000     3.891000000
C     1.466000000    -1.691000000     4.834000000
H     0.787000000    -0.930000000     5.209000000
C    -0.528000000    -2.417000000     3.406000000
O    -1.133000000    -3.649000000     2.949000000
H    -0.542000000    -1.696000000     2.575000000
O    -1.350000000    -1.799000000     4.492000000
C    -2.220000000    -0.836000000     4.036000000
C    -1.694000000     0.469000000     4.238000000
H    -0.799000000     0.559000000     4.847000000
C    -2.400000000     1.574000000     3.670000000
O    -1.905000000     2.783000000     3.693000000
C    -3.586000000     1.332000000     2.959000000
C    -4.452000000     2.419000000     2.291000000
H    -5.484000000     2.088000000     2.159000000
C    -3.977000000     2.687000000     0.878000000
C    -4.594000000     2.123000000    -0.211000000
H    -5.340000000     1.348000000    -0.052000000
H    -4.447000000     3.357000000     2.849000000
C    -4.059000000     0.019000000     2.820000000
H    -4.984000000    -0.134000000     2.270000000
C    -3.372000000    -1.044000000     3.322000000
C    -3.841000000    -2.496000000     3.050000000
H    -4.909000000    -2.456000000     2.827000000
H    -3.578000000    -3.051000000     3.953000000
C    -3.160000000    -3.066000000     1.815000000
C    -3.818000000    -2.994000000     0.597000000
H    -4.826000000    -2.589000000     0.586000000
C    -1.878000000    -3.656000000     1.831000000
C    -1.263000000    -4.028000000     0.643000000
H    -0.222000000    -4.340000000     0.621000000
C    -1.985000000    -4.038000000    -0.535000000
O    -1.333000000    -4.376000000    -1.636000000
C    -0.682000000    -3.289000000    -2.351000000
C     0.762000000    -3.716000000    -2.730000000
C     1.370000000    -3.155000000    -3.827000000
H     0.804000000    -2.586000000    -4.559000000
C     1.523000000    -4.522000000    -1.878000000
H     1.215000000    -4.837000000    -0.884000000
O    -1.563000000    -3.101000000    -3.526000000
H    -0.719000000    -2.399000000    -1.705000000
C    -3.252000000    -3.545000000    -0.531000000
C    -4.039000000    -3.398000000    -1.810000000
H    -5.103000000    -3.309000000    -1.580000000
H    -3.760000000    -4.172000000    -2.528000000
C    -3.634000000    -2.092000000    -2.502000000
C    -4.388000000    -0.952000000    -2.350000000
H    -5.274000000    -0.944000000    -1.721000000
C    -2.469000000    -2.011000000    -3.322000000
C    -2.095000000    -0.904000000    -4.038000000
H    -1.209000000    -0.841000000    -4.665000000
C    -2.788000000     0.275000000    -3.760000000
O    -2.411000000     1.517000000    -4.290000000
C    -1.537000000     2.263000000    -3.364000000
C    -0.260000000     2.770000000    -4.021000000
C     0.546000000     1.936000000    -4.791000000
H     0.203000000     0.946000000    -5.083000000
C     0.163000000     4.042000000    -3.799000000
H    -0.395000000     4.726000000    -3.165000000
O    -2.387000000     3.312000000    -2.893000000
H    -1.229000000     1.597000000    -2.544000000
C    -3.958000000     0.251000000    -2.926000000
C    -4.762000000     1.484000000    -2.667000000
H    -5.813000000     1.315000000    -2.426000000
H    -4.817000000     2.204000000    -3.486000000
C    -4.130000000     2.267000000    -1.505000000
C    -3.033000000     3.101000000    -1.671000000
C    -2.475000000     3.743000000    -0.579000000
H    -1.669000000     4.430000000    -0.824000000
C    -2.962000000     3.619000000     0.678000000
O    -2.218000000     4.194000000     1.721000000
C    -1.332000000     3.248000000     2.451000000
H    -1.068000000     2.430000000     1.764000000
C     0.004000000     3.934000000     2.743000000
C     0.789000000     3.580000000     3.836000000
H     0.319000000     3.072000000     4.674000000
C     0.554000000     4.760000000     1.728000000
H    -0.026000000     5.074000000     0.864000000
C     1.918000000     5.128000000     1.810000000
O     2.563000000     5.790000000     0.739000000
C     2.687000000     4.660000000     2.845000000
H     3.738000000     4.928000000     2.913000000
C     2.121000000     3.938000000     3.871000000
O     2.994000000     3.539000000     4.880000000
C     2.662000000     2.546000000     5.739000000
C     3.153000000     1.260000000     5.517000000
H     3.802000000     1.125000000     4.656000000
C     1.854000000     2.791000000     6.812000000
H     1.492000000     3.813000000     6.896000000
C     1.609000000     1.742000000     7.705000000
H     1.071000000     1.884000000     8.639000000
C     2.152000000     0.493000000     7.546000000
H     1.976000000    -0.267000000     8.303000000
C     2.876000000     0.197000000     6.400000000
O     3.337000000    -1.113000000     6.154000000
C     2.768000000    -1.889000000     5.256000000
C     3.474000000    -2.996000000     4.879000000
H     4.374000000    -3.185000000     5.458000000
C     2.993000000    -3.800000000     3.845000000
O     3.782000000    -4.886000000     3.512000000
C     3.542000000    -5.655000000     2.398000000
C     3.533000000    -5.068000000     1.148000000
H     3.693000000    -4.011000000     0.951000000
C     3.500000000    -7.000000000     2.597000000
H     3.521000000    -7.470000000     3.577000000
C     3.392000000    -7.837000000     1.472000000
H     3.227000000    -8.911000000     1.478000000
C     3.332000000    -7.331000000     0.192000000
H     3.348000000    -7.958000000    -0.696000000
C     3.358000000    -5.911000000     0.049000000
O     3.643000000    -5.511000000    -1.266000000
C     2.942000000    -4.674000000    -2.081000000
C     3.464000000    -4.220000000    -3.238000000
H     4.492000000    -4.495000000    -3.462000000
C     2.690000000    -3.440000000    -4.097000000
O     3.397000000    -2.874000000    -5.091000000
C     2.960000000    -1.981000000    -5.944000000
C     2.949000000    -0.654000000    -5.591000000
H     3.420000000    -0.326000000    -4.668000000
C     2.349000000    -2.440000000    -7.104000000
H     2.340000000    -3.508000000    -7.307000000
C     1.819000000    -1.501000000    -8.013000000
H     1.163000000    -1.830000000    -8.815000000
C     1.861000000    -0.115000000    -7.714000000
H     1.311000000     0.562000000    -8.363000000
C     2.459000000     0.273000000    -6.525000000
O     2.482000000     1.722000000    -6.339000000
C     1.735000000     2.448000000    -5.446000000
C     2.115000000     3.756000000    -5.181000000
H     3.055000000     4.187000000    -5.516000000
C     1.367000000     4.532000000    -4.237000000
O     1.805000000     5.765000000    -3.925000000
C     1.589000000     6.336000000    -2.683000000
C     0.587000000     7.358000000    -2.579000000
H     0.188000000     7.748000000    -3.512000000
C     0.293000000     7.891000000    -1.330000000
H    -0.446000000     8.679000000    -1.213000000
C     0.988000000     7.407000000    -0.218000000
H     0.752000000     7.843000000     0.750000000
C     1.862000000     6.332000000    -0.347000000
C     2.213000000     5.830000000    -1.570000000
H     2.854000000     4.957000000    -1.671000000
C     3.218000000    -1.051000000    -1.067000000
H     3.802000000    -1.240000000    -1.963000000
C     1.857000000    -0.670000000    -1.178000000
H     1.505000000    -0.477000000    -2.188000000
C     1.124000000    -0.400000000    -0.022000000
C    -0.301000000     0.175000000    -0.082000000
H    -0.864000000    -0.328000000     0.707000000
H    -0.358000000     1.264000000    -0.023000000
H    -0.644000000    -0.172000000    -1.058000000
C     1.672000000    -0.639000000     1.250000000
H     1.032000000    -0.424000000     2.101000000
C     2.925000000    -1.149000000     1.352000000
H     3.441000000    -1.316000000     2.294000000
C     3.790000000    -1.269000000     0.163000000
C     5.259000000    -1.613000000     0.284000000
O     5.770000000    -1.771000000     1.416000000
O     5.978000000    -1.585000000    -0.703000000
O     6.646000000    -7.040000000    -1.322000000
H     5.895000000    -6.933000000    -1.906000000
H     6.816000000    -6.159000000    -0.987000000
O     5.195000000     3.994000000     0.482000000
H     5.671000000     3.395000000     1.057000000
H     4.630000000     3.426000000    -0.042000000
O     6.243000000     3.187000000    -3.385000000
H     6.105000000     2.364000000    -2.917000000
H     5.738000000     3.091000000    -4.193000000
O     8.489000000    -0.958000000     0.030000000
H     8.358000000    -0.585000000     0.902000000
H     7.606000000    -1.149000000    -0.284000000
O     6.832000000    -4.076000000    -1.616000000
H     7.321000000    -3.840000000    -2.404000000
H     6.224000000    -3.349000000    -1.484000000
O     3.481000000     2.199000000    -0.543000000
H     4.390000000     1.899000000    -0.559000000
H     2.963000000     1.394000000    -0.519000000
O    10.954000000     0.658000000    -0.597000000
H    11.142000000     0.620000000    -1.534000000
H    10.214000000     0.063000000    -0.476000000
O     9.919000000    -2.516000000    -2.140000000
H     9.231000000    -2.346000000    -2.783000000
H     9.516000000    -2.307000000    -1.297000000
O     6.435000000     2.172000000     2.174000000
H     6.217000000     1.390000000     2.680000000
H     7.172000000     1.904000000     1.625000000
O     9.366000000    -4.594000000     2.001000000
H     8.464000000    -4.311000000     2.154000000
H     9.296000000    -5.257000000     1.315000000
O     6.260000000    -2.445000000    -4.249000000
H     5.361000000    -2.768000000    -4.315000000
H     6.275000000    -1.665000000    -4.804000000
O     8.557000000    -0.240000000     2.868000000
H     9.290000000     0.166000000     3.331000000
H     8.554000000    -1.148000000     3.173000000
O    10.687000000    -2.285000000     1.099000000
H    10.395000000    -2.938000000     1.734000000
H     9.879000000    -1.956000000     0.704000000
O     6.631000000    -4.215000000     1.709000000
H     6.365000000    -3.311000000     1.537000000
H     6.466000000    -4.674000000     0.886000000
O     6.774000000    -5.133000000     4.517000000
H     6.358000000    -4.777000000     3.732000000
H     6.056000000    -5.534000000     5.007000000
O     5.604000000    -0.155000000     3.513000000
H     5.645000000    -0.882000000     2.891000000
H     4.674000000     0.065000000     3.563000000
O     8.526000000     2.173000000     0.693000000
H     8.778000000     3.082000000     0.533000000
H     9.311000000     1.768000000     1.060000000
O     8.769000000    -0.801000000    -3.956000000
H     7.865000000    -0.701000000    -4.255000000
H     9.069000000     0.094000000    -3.798000000
O     5.979000000     1.031000000    -1.000000000
H     5.979000000     0.074000000    -1.034000000
H     6.749000000     1.251000000    -0.475000000
