218
-1457.14724
C     3.663000000    -3.143000000     2.029000000
H     3.517000000    -3.594000000     1.050000000
C     2.534000000    -2.844000000     2.805000000
C     2.686000000    -2.239000000     4.059000000
H     1.765000000    -2.049000000     4.603000000
C     1.093000000    -3.321000000     2.331000000
O     1.190000000    -4.511000000     1.497000000
H     0.641000000    -2.458000000     1.821000000
O     0.258000000    -3.467000000     3.530000000
C    -0.945000000    -2.863000000     3.341000000
C    -1.189000000    -1.679000000     3.983000000
H    -0.448000000    -1.269000000     4.664000000
C    -2.450000000    -1.061000000     3.861000000
O    -2.487000000     0.227000000     4.377000000
C    -3.437000000    -1.663000000     3.105000000
C    -4.733000000    -0.911000000     2.812000000
H    -5.545000000    -1.623000000     2.642000000
C    -4.544000000     0.000000000     1.637000000
C    -5.015000000    -0.436000000     0.402000000
H    -5.272000000    -1.487000000     0.288000000
H    -5.139000000    -0.362000000     3.664000000
C    -3.161000000    -2.856000000     2.482000000
H    -3.874000000    -3.201000000     1.738000000
C    -1.923000000    -3.515000000     2.564000000
C    -1.736000000    -4.818000000     1.776000000
H    -2.740000000    -5.247000000     1.732000000
H    -1.101000000    -5.422000000     2.428000000
C    -1.052000000    -4.517000000     0.451000000
C    -1.885000000    -4.531000000    -0.678000000
H    -2.969000000    -4.618000000    -0.673000000
C     0.379000000    -4.480000000     0.370000000
C     0.929000000    -4.460000000    -0.908000000
H     2.015000000    -4.451000000    -0.954000000
C     0.153000000    -4.351000000    -2.070000000
O     0.786000000    -4.067000000    -3.265000000
C     0.569000000    -2.654000000    -3.661000000
C     1.863000000    -1.995000000    -4.159000000
C     1.973000000    -0.989000000    -5.139000000
H     1.146000000    -0.703000000    -5.784000000
C     2.997000000    -2.331000000    -3.399000000
H     2.934000000    -3.017000000    -2.558000000
O    -0.480000000    -2.539000000    -4.538000000
H     0.185000000    -2.155000000    -2.759000000
C    -1.264000000    -4.437000000    -2.000000000
C    -2.259000000    -4.294000000    -3.195000000
H    -3.159000000    -4.838000000    -2.903000000
H    -1.958000000    -4.690000000    -4.167000000
C    -2.555000000    -2.783000000    -3.383000000
C    -3.717000000    -2.215000000    -2.765000000
H    -4.457000000    -2.898000000    -2.355000000
C    -1.669000000    -1.999000000    -4.055000000
C    -1.844000000    -0.625000000    -4.161000000
H    -1.148000000     0.002000000    -4.713000000
C    -2.977000000    -0.098000000    -3.555000000
O    -3.047000000     1.259000000    -3.592000000
C    -2.691000000     1.977000000    -2.409000000
C    -1.723000000     3.150000000    -2.599000000
C    -1.053000000     3.301000000    -3.727000000
H    -1.253000000     2.562000000    -4.499000000
C    -1.459000000     4.094000000    -1.572000000
H    -1.905000000     3.912000000    -0.597000000
O    -3.861000000     2.411000000    -1.675000000
H    -2.153000000     1.309000000    -1.719000000
C    -3.864000000    -0.858000000    -2.824000000
C    -5.076000000    -0.246000000    -2.175000000
H    -5.816000000    -1.041000000    -2.063000000
H    -5.520000000     0.483000000    -2.856000000
C    -4.796000000     0.373000000    -0.729000000
C    -4.247000000     1.684000000    -0.577000000
C    -3.974000000     2.107000000     0.707000000
H    -3.512000000     3.087000000     0.792000000
C    -4.089000000     1.276000000     1.828000000
O    -3.648000000     1.786000000     2.983000000
C    -2.387000000     1.349000000     3.441000000
H    -1.872000000     0.934000000     2.562000000
C    -1.512000000     2.505000000     4.005000000
C    -0.288000000     2.187000000     4.592000000
H    -0.066000000     1.132000000     4.726000000
C    -1.782000000     3.848000000     3.775000000
H    -2.724000000     4.076000000     3.282000000
C    -0.917000000     4.890000000     4.135000000
O    -1.349000000     6.188000000     3.868000000
C     0.254000000     4.505000000     4.726000000
H     1.047000000     5.211000000     4.957000000
C     0.595000000     3.168000000     4.927000000
O     1.857000000     2.826000000     5.391000000
C     2.096000000     1.688000000     6.102000000
C     3.028000000     0.786000000     5.612000000
H     3.511000000     0.887000000     4.643000000
C     1.431000000     1.440000000     7.319000000
H     0.706000000     2.182000000     7.643000000
C     1.805000000     0.305000000     8.078000000
H     1.371000000     0.146000000     9.062000000
C     2.636000000    -0.678000000     7.537000000
H     2.855000000    -1.637000000     7.998000000
C     3.296000000    -0.393000000     6.340000000
O     4.177000000    -1.307000000     5.766000000
C     3.957000000    -1.928000000     4.523000000
C     5.045000000    -2.153000000     3.724000000
H     6.019000000    -1.777000000     4.027000000
C     4.897000000    -2.869000000     2.526000000
O     6.093000000    -3.200000000     1.788000000
C     5.967000000    -3.551000000     0.455000000
C     5.916000000    -2.623000000    -0.536000000
H     5.932000000    -1.549000000    -0.369000000
C     5.942000000    -4.912000000     0.145000000
H     5.927000000    -5.685000000     0.909000000
C     5.904000000    -5.339000000    -1.216000000
H     5.979000000    -6.376000000    -1.533000000
C     5.603000000    -4.334000000    -2.177000000
H     5.574000000    -4.689000000    -3.204000000
C     5.599000000    -2.979000000    -1.847000000
O     5.398000000    -2.049000000    -2.886000000
C     4.232000000    -1.818000000    -3.692000000
C     4.381000000    -0.835000000    -4.736000000
H     5.376000000    -0.453000000    -4.952000000
C     3.217000000    -0.364000000    -5.346000000
O     3.332000000     0.679000000    -6.305000000
C     2.356000000     1.554000000    -6.584000000
C     1.854000000     2.453000000    -5.641000000
H     2.213000000     2.493000000    -4.616000000
C     1.902000000     1.650000000    -7.926000000
H     2.482000000     1.167000000    -8.708000000
C     0.941000000     2.551000000    -8.282000000
H     0.472000000     2.589000000    -9.261000000
C     0.397000000     3.439000000    -7.301000000
H    -0.315000000     4.120000000    -7.758000000
C     0.957000000     3.521000000    -6.009000000
O     0.637000000     4.508000000    -5.088000000
C    -0.128000000     4.338000000    -3.922000000
C     0.028000000     5.325000000    -2.924000000
H     0.791000000     6.098000000    -2.965000000
C    -0.599000000     5.171000000    -1.701000000
O    -0.331000000     6.029000000    -0.655000000
C    -1.188000000     6.382000000     0.275000000
C    -2.375000000     7.021000000     0.007000000
H    -2.738000000     7.019000000    -1.018000000
C    -3.168000000     7.504000000     1.038000000
H    -4.095000000     7.989000000     0.745000000
C    -2.820000000     7.307000000     2.398000000
H    -3.431000000     7.671000000     3.220000000
C    -1.739000000     6.517000000     2.580000000
C    -0.852000000     6.175000000     1.578000000
H     0.169000000     5.889000000     1.821000000
C     2.230000000     0.648000000    -1.077000000
H     2.798000000     0.783000000    -1.995000000
C     0.945000000     0.146000000    -1.255000000
H     0.387000000     0.079000000    -2.186000000
C     0.231000000    -0.105000000    -0.171000000
C    -1.143000000    -0.734000000    -0.317000000
H    -1.885000000     0.011000000    -0.023000000
H    -1.493000000    -1.119000000    -1.277000000
H    -1.170000000    -1.494000000     0.466000000
C     0.734000000     0.163000000     1.095000000
H     0.221000000    -0.165000000     1.995000000
C     2.024000000     0.797000000     1.262000000
H     2.393000000     1.127000000     2.230000000
C     2.787000000     0.995000000     0.156000000
C     4.168000000     1.642000000     0.185000000
O     4.616000000     2.043000000     1.241000000
O     4.771000000     1.751000000    -0.875000000
O     4.850000000     3.027000000    -5.499000000
H     4.205000000     2.441000000    -5.895000000
H     5.137000000     2.569000000    -4.709000000
O     3.752000000     5.287000000    -4.170000000
H     4.093000000     4.598000000    -4.741000000
H     3.599000000     4.849000000    -3.332000000
O     9.933000000     2.141000000     0.611000000
H     8.981000000     2.239000000     0.622000000
H    10.262000000     3.021000000     0.424000000
O     5.701000000     7.189000000    -0.015000000
H     5.301000000     6.342000000     0.183000000
H     6.597000000     6.976000000    -0.276000000
O     2.344000000     6.459000000    -0.777000000
H     1.440000000     6.417000000    -0.466000000
H     2.565000000     5.554000000    -0.995000000
O     6.892000000     1.141000000     4.857000000
H     7.410000000     0.435000000     5.243000000
H     6.238000000     1.350000000     5.524000000
O     4.495000000     5.019000000     1.128000000
H     4.384000000     4.877000000     2.068000000
H     4.797000000     4.175000000     0.792000000
O     9.155000000    -0.311000000     2.081000000
H     9.455000000     0.478000000     1.629000000
H     8.227000000    -0.150000000     2.254000000
O     4.152000000     3.764000000     3.417000000
H     4.230000000     2.977000000     2.879000000
H     4.034000000     3.435000000     4.308000000
O     6.574000000     0.514000000     2.042000000
H     5.889000000     0.995000000     1.578000000
H     6.561000000     0.875000000     2.929000000
O     8.035000000     0.417000000    -3.414000000
H     7.392000000     1.093000000    -3.626000000
H     7.911000000     0.254000000    -2.479000000
O     5.990000000     2.124000000    -3.446000000
H     5.487000000     1.760000000    -2.718000000
H     6.699000000     2.612000000    -3.026000000
O     7.262000000     3.182000000     0.421000000
H     6.358000000     2.873000000     0.375000000
H     7.247000000     3.870000000     1.086000000
O     2.169000000     7.151000000     2.160000000
H     2.602000000     6.315000000     1.983000000
H     2.412000000     7.707000000     1.420000000
O     2.671000000     3.503000000    -1.764000000
H     3.472000000     3.033000000    -1.530000000
H     1.963000000     2.944000000    -1.443000000
O     7.462000000     5.775000000    -2.487000000
H     8.121000000     6.175000000    -1.920000000
H     7.716000000     4.853000000    -2.537000000
O     7.535000000     3.680000000     3.653000000
H     7.387000000     2.897000000     4.182000000
H     8.423000000     3.958000000     3.880000000
O     8.251000000     2.951000000    -2.244000000
H     7.973000000     2.952000000    -1.328000000
H     9.138000000     2.591000000    -2.224000000
O     7.275000000     0.382000000    -0.961000000
H     6.528000000     0.968000000    -0.842000000
H     7.684000000     0.337000000    -0.097000000
