218
-1449.10347
C     3.349000000    -3.438000000     1.548000000
H     3.346000000    -3.453000000     0.461000000
C     2.184000000    -3.881000000     2.208000000
C     2.189000000    -3.797000000     3.592000000
H     1.303000000    -4.060000000     4.163000000
C     0.900000000    -4.075000000     1.363000000
O     1.051000000    -5.018000000     0.254000000
H     0.743000000    -3.064000000     0.959000000
O    -0.197000000    -4.550000000     2.213000000
C    -1.467000000    -4.026000000     2.027000000
C    -1.744000000    -2.963000000     2.855000000
H    -1.137000000    -2.797000000     3.741000000
C    -2.834000000    -2.199000000     2.594000000
O    -3.039000000    -1.139000000     3.459000000
C    -3.733000000    -2.479000000     1.524000000
C    -4.975000000    -1.683000000     1.454000000
H    -5.787000000    -2.250000000     0.995000000
C    -4.790000000    -0.373000000     0.698000000
C    -5.028000000    -0.361000000    -0.741000000
H    -5.479000000    -1.147000000    -1.342000000
H    -5.271000000    -1.397000000     2.466000000
C    -3.512000000    -3.670000000     0.761000000
H    -4.219000000    -4.012000000     0.010000000
C    -2.225000000    -4.299000000     0.900000000
C    -1.755000000    -5.448000000     0.002000000
H    -2.629000000    -5.857000000    -0.508000000
H    -1.245000000    -6.250000000     0.540000000
C    -0.908000000    -4.839000000    -1.134000000
C    -1.491000000    -4.262000000    -2.285000000
H    -2.571000000    -4.155000000    -2.343000000
C     0.499000000    -4.699000000    -0.973000000
C     1.266000000    -4.075000000    -1.998000000
H     2.319000000    -3.936000000    -1.767000000
C     0.687000000    -3.521000000    -3.136000000
O     1.432000000    -2.834000000    -3.952000000
C     1.327000000    -1.429000000    -3.815000000
C     2.785000000    -0.784000000    -3.859000000
C     2.868000000     0.621000000    -4.058000000
H     1.973000000     1.226000000    -4.171000000
C     3.900000000    -1.499000000    -3.396000000
H     3.756000000    -2.565000000    -3.239000000
O     0.512000000    -0.930000000    -4.843000000
H     0.966000000    -1.098000000    -2.830000000
C    -0.752000000    -3.583000000    -3.283000000
C    -1.440000000    -3.035000000    -4.509000000
H    -2.389000000    -3.570000000    -4.594000000
H    -0.850000000    -3.259000000    -5.400000000
C    -1.733000000    -1.558000000    -4.259000000
C    -2.981000000    -1.145000000    -3.766000000
H    -3.693000000    -1.903000000    -3.449000000
C    -0.771000000    -0.604000000    -4.530000000
C    -1.099000000     0.742000000    -4.413000000
H    -0.389000000     1.505000000    -4.723000000
C    -2.295000000     1.170000000    -3.819000000
O    -2.413000000     2.533000000    -3.473000000
C    -2.395000000     2.884000000    -2.115000000
C    -1.854000000     4.237000000    -1.986000000
C    -0.940000000     4.689000000    -2.945000000
H    -0.617000000     4.038000000    -3.753000000
C    -2.079000000     5.007000000    -0.797000000
H    -2.710000000     4.583000000    -0.020000000
O    -3.743000000     2.888000000    -1.581000000
H    -1.701000000     2.148000000    -1.681000000
C    -3.279000000     0.188000000    -3.468000000
C    -4.670000000     0.699000000    -3.009000000
H    -5.351000000    -0.052000000    -3.414000000
H    -4.935000000     1.591000000    -3.580000000
C    -4.754000000     0.780000000    -1.494000000
C    -4.226000000     1.900000000    -0.847000000
C    -4.180000000     1.924000000     0.487000000
H    -3.879000000     2.811000000     1.039000000
C    -4.397000000     0.825000000     1.281000000
O    -4.116000000     0.784000000     2.623000000
C    -2.845000000     0.187000000     2.948000000
H    -2.246000000     0.032000000     2.038000000
C    -2.015000000     1.072000000     3.978000000
C    -1.152000000     0.551000000     4.907000000
H    -1.073000000    -0.526000000     5.025000000
C    -1.916000000     2.516000000     3.778000000
H    -2.462000000     3.036000000     2.994000000
C    -1.015000000     3.324000000     4.478000000
O    -0.797000000     4.678000000     4.265000000
C    -0.235000000     2.692000000     5.425000000
H     0.556000000     3.309000000     5.845000000
C    -0.278000000     1.318000000     5.634000000
O     0.655000000     0.749000000     6.594000000
C     0.918000000    -0.547000000     6.732000000
C     1.831000000    -1.215000000     6.008000000
H     2.347000000    -0.745000000     5.175000000
C     0.196000000    -1.222000000     7.776000000
H    -0.453000000    -0.589000000     8.375000000
C     0.549000000    -2.547000000     8.081000000
H     0.117000000    -2.938000000     8.999000000
C     1.501000000    -3.190000000     7.324000000
H     1.913000000    -4.157000000     7.603000000
C     2.120000000    -2.549000000     6.273000000
O     3.244000000    -3.141000000     5.660000000
C     3.298000000    -3.400000000     4.283000000
C     4.376000000    -2.880000000     3.557000000
H     5.260000000    -2.405000000     3.977000000
C     4.478000000    -3.143000000     2.248000000
O     5.772000000    -2.860000000     1.702000000
C     6.023000000    -3.083000000     0.411000000
C     5.928000000    -2.061000000    -0.568000000
H     5.731000000    -1.037000000    -0.258000000
C     6.279000000    -4.397000000     0.011000000
H     6.161000000    -5.192000000     0.743000000
C     6.403000000    -4.807000000    -1.332000000
H     6.666000000    -5.842000000    -1.531000000
C     6.314000000    -3.782000000    -2.344000000
H     6.331000000    -3.953000000    -3.418000000
C     6.159000000    -2.458000000    -1.939000000
O     6.242000000    -1.544000000    -2.959000000
C     5.082000000    -0.847000000    -3.367000000
C     5.213000000     0.525000000    -3.513000000
H     6.164000000     1.014000000    -3.314000000
C     4.115000000     1.296000000    -3.863000000
O     4.223000000     2.672000000    -3.934000000
C     3.241000000     3.461000000    -4.499000000
C     2.491000000     4.280000000    -3.713000000
H     2.533000000     4.153000000    -2.635000000
C     3.134000000     3.457000000    -5.913000000
H     3.765000000     2.925000000    -6.621000000
C     2.118000000     4.226000000    -6.487000000
H     2.038000000     4.303000000    -7.569000000
C     1.360000000     5.029000000    -5.710000000
H     0.676000000     5.668000000    -6.263000000
C     1.579000000     5.135000000    -4.325000000
O     0.905000000     6.098000000    -3.582000000
C    -0.227000000     5.830000000    -2.758000000
C    -0.533000000     6.703000000    -1.717000000
H    -0.088000000     7.685000000    -1.582000000
C    -1.454000000     6.249000000    -0.740000000
O    -1.822000000     7.088000000     0.233000000
C    -2.230000000     6.538000000     1.492000000
C    -3.429000000     6.967000000     2.011000000
H    -4.120000000     7.487000000     1.353000000
C    -3.823000000     6.735000000     3.291000000
H    -4.742000000     7.129000000     3.719000000
C    -2.970000000     5.890000000     4.058000000
H    -3.291000000     5.552000000     5.040000000
C    -1.715000000     5.453000000     3.553000000
C    -1.370000000     5.795000000     2.210000000
H    -0.427000000     5.454000000     1.790000000
C     3.605000000     1.349000000     0.146000000
H     4.323000000     1.869000000    -0.482000000
C     2.287000000     0.948000000    -0.336000000
H     1.920000000     1.335000000    -1.283000000
C     1.399000000     0.225000000     0.449000000
C     0.014000000    -0.170000000    -0.141000000
H    -0.595000000    -0.776000000     0.533000000
H    -0.476000000     0.796000000    -0.274000000
H     0.329000000    -0.741000000    -1.017000000
C     1.704000000    -0.087000000     1.817000000
H     0.992000000    -0.717000000     2.344000000
C     3.008000000     0.243000000     2.232000000
H     3.235000000    -0.015000000     3.263000000
C     3.900000000     1.043000000     1.487000000
C     5.305000000     1.219000000     2.048000000
O     5.564000000     0.944000000     3.206000000
O     6.189000000     1.707000000     1.335000000
O     9.386000000     4.014000000    -0.697000000
H     9.059000000     3.676000000     0.136000000
H    10.198000000     3.531000000    -0.850000000
O     1.699000000     5.155000000     2.922000000
H     0.816000000     4.895000000     3.186000000
H     2.234000000     5.007000000     3.702000000
O     9.682000000    -2.974000000     1.593000000
H     9.613000000    -2.797000000     2.532000000
H     8.848000000    -3.382000000     1.364000000
O     7.086000000    -0.671000000     4.710000000
H     6.531000000    -0.107000000     4.172000000
H     7.958000000    -0.280000000     4.645000000
O     3.156000000     4.026000000     4.929000000
H     3.360000000     3.117000000     5.149000000
H     3.987000000     4.391000000     4.626000000
O     3.898000000     6.134000000     1.344000000
H     3.164000000     5.677000000     1.753000000
H     4.434000000     5.437000000     0.966000000
O     8.360000000     4.516000000     6.088000000
H     8.561000000     5.343000000     5.650000000
H     8.301000000     3.877000000     5.378000000
O     7.689000000     0.394000000    -0.705000000
H     8.271000000     0.039000000    -0.034000000
H     6.920000000     0.695000000    -0.221000000
O     5.485000000     4.671000000     4.026000000
H     6.045000000     5.158000000     3.421000000
H     5.956000000     3.853000000     4.184000000
O     7.746000000     2.755000000     4.108000000
H     7.128000000     2.065000000     3.868000000
H     8.350000000     2.805000000     3.367000000
O     5.818000000     4.232000000     7.181000000
H     6.634000000     4.420000000     6.718000000
H     5.403000000     3.541000000     6.665000000
O     9.628000000     0.247000000    -2.444000000
H     8.749000000     0.238000000    -2.065000000
H    10.195000000     0.534000000    -1.728000000
O     5.454000000     4.032000000     0.316000000
H     5.708000000     3.251000000     0.807000000
H     5.865000000     3.921000000    -0.541000000
O     7.781000000    -3.070000000     5.791000000
H     8.591000000    -3.018000000     5.283000000
H     7.163000000    -2.517000000     5.312000000
O     4.484000000     1.803000000     5.423000000
H     4.619000000     1.130000000     6.090000000
H     4.771000000     1.392000000     4.607000000
O     4.954000000    -0.323000000     7.235000000
H     4.748000000    -0.787000000     8.047000000
H     5.567000000    -0.898000000     6.779000000
O     9.732000000    -0.298000000     1.024000000
H     9.713000000    -1.225000000     1.265000000
H    10.650000000    -0.124000000     0.815000000
O     8.755000000     2.354000000     1.379000000
H     9.232000000     1.541000000     1.216000000
H     7.834000000     2.094000000     1.389000000
O     7.598000000     6.366000000     2.734000000
H     8.394000000     6.055000000     3.163000000
H     7.876000000     6.589000000     1.846000000
