218
-1475.81107
C     3.335000000    -3.076000000     1.626000000
H     3.404000000    -3.022000000     0.542000000
C     2.136000000    -3.573000000     2.158000000
C     2.164000000    -3.611000000     3.546000000
H     1.330000000    -4.124000000     4.017000000
C     0.891000000    -3.836000000     1.276000000
O     1.273000000    -4.626000000     0.184000000
H     0.449000000    -2.910000000     0.877000000
O    -0.068000000    -4.468000000     2.070000000
C    -1.330000000    -3.950000000     1.929000000
C    -1.694000000    -3.012000000     2.919000000
H    -0.952000000    -2.684000000     3.643000000
C    -2.954000000    -2.379000000     2.759000000
O    -3.224000000    -1.284000000     3.665000000
C    -3.744000000    -2.642000000     1.625000000
C    -5.060000000    -1.950000000     1.388000000
H    -5.730000000    -2.728000000     1.017000000
C    -4.725000000    -0.681000000     0.617000000
C    -4.897000000    -0.680000000    -0.807000000
H    -5.129000000    -1.644000000    -1.254000000
H    -5.511000000    -1.616000000     2.324000000
C    -3.369000000    -3.692000000     0.752000000
H    -4.017000000    -4.005000000    -0.063000000
C    -2.095000000    -4.323000000     0.868000000
C    -1.644000000    -5.235000000    -0.252000000
H    -2.530000000    -5.568000000    -0.797000000
H    -1.242000000    -6.168000000     0.148000000
C    -0.714000000    -4.598000000    -1.273000000
C    -1.255000000    -4.261000000    -2.474000000
H    -2.327000000    -4.333000000    -2.638000000
C     0.668000000    -4.435000000    -1.035000000
C     1.455000000    -3.813000000    -2.004000000
H     2.520000000    -3.614000000    -1.909000000
C     0.847000000    -3.375000000    -3.169000000
O     1.644000000    -2.652000000    -4.141000000
C     1.596000000    -1.193000000    -4.025000000
C     3.024000000    -0.608000000    -4.042000000
C     3.058000000     0.815000000    -4.293000000
H     2.167000000     1.417000000    -4.450000000
C     4.186000000    -1.218000000    -3.646000000
H     4.206000000    -2.258000000    -3.330000000
O     0.728000000    -0.674000000    -5.087000000
H     1.059000000    -0.987000000    -3.088000000
C    -0.492000000    -3.582000000    -3.416000000
C    -1.204000000    -2.978000000    -4.643000000
H    -2.124000000    -3.489000000    -4.934000000
H    -0.465000000    -3.048000000    -5.445000000
C    -1.537000000    -1.484000000    -4.508000000
C    -2.836000000    -1.153000000    -4.019000000
H    -3.530000000    -1.984000000    -3.917000000
C    -0.562000000    -0.437000000    -4.650000000
C    -0.996000000     0.838000000    -4.483000000
H    -0.290000000     1.630000000    -4.720000000
C    -2.229000000     1.116000000    -3.924000000
O    -2.431000000     2.400000000    -3.497000000
C    -2.250000000     2.670000000    -2.059000000
C    -1.616000000     4.005000000    -1.825000000
C    -0.704000000     4.454000000    -2.788000000
H    -0.525000000     3.995000000    -3.757000000
C    -1.723000000     4.628000000    -0.619000000
H    -2.352000000     4.269000000     0.192000000
O    -3.552000000     2.705000000    -1.454000000
H    -1.595000000     1.930000000    -1.576000000
C    -3.205000000     0.149000000    -3.711000000
C    -4.545000000     0.390000000    -3.120000000
H    -5.318000000    -0.304000000    -3.455000000
H    -4.985000000     1.320000000    -3.485000000
C    -4.549000000     0.459000000    -1.577000000
C    -3.991000000     1.524000000    -0.889000000
C    -4.006000000     1.577000000     0.470000000
H    -3.588000000     2.459000000     0.948000000
C    -4.308000000     0.467000000     1.233000000
O    -4.093000000     0.640000000     2.579000000
C    -2.960000000     0.030000000     3.200000000
H    -2.107000000     0.009000000     2.505000000
C    -2.327000000     0.826000000     4.239000000
C    -1.276000000     0.299000000     4.979000000
H    -1.068000000    -0.758000000     4.834000000
C    -2.662000000     2.172000000     4.370000000
H    -3.463000000     2.571000000     3.754000000
C    -1.836000000     3.056000000     5.074000000
O    -2.013000000     4.449000000     5.045000000
C    -0.772000000     2.525000000     5.787000000
H    -0.207000000     3.249000000     6.369000000
C    -0.534000000     1.138000000     5.809000000
O     0.536000000     0.572000000     6.457000000
C     0.674000000    -0.769000000     6.757000000
C     1.780000000    -1.370000000     6.125000000
H     2.440000000    -0.802000000     5.473000000
C    -0.157000000    -1.591000000     7.579000000
H    -0.938000000    -1.198000000     8.225000000
C     0.148000000    -2.942000000     7.748000000
H    -0.413000000    -3.399000000     8.558000000
C     1.301000000    -3.471000000     7.159000000
H     1.499000000    -4.516000000     7.383000000
C     2.082000000    -2.735000000     6.304000000
O     3.175000000    -3.207000000     5.666000000
C     3.246000000    -3.201000000     4.331000000
C     4.383000000    -2.768000000     3.744000000
H     5.245000000    -2.460000000     4.332000000
C     4.466000000    -2.690000000     2.340000000
O     5.619000000    -2.228000000     1.755000000
C     5.926000000    -2.596000000     0.437000000
C     6.126000000    -1.622000000    -0.565000000
H     5.885000000    -0.576000000    -0.391000000
C     5.982000000    -3.885000000     0.119000000
H     5.724000000    -4.640000000     0.857000000
C     6.118000000    -4.275000000    -1.215000000
H     6.094000000    -5.328000000    -1.484000000
C     6.285000000    -3.373000000    -2.221000000
H     6.376000000    -3.734000000    -3.242000000
C     6.259000000    -2.016000000    -1.921000000
O     6.496000000    -1.140000000    -2.902000000
C     5.402000000    -0.479000000    -3.463000000
C     5.452000000     0.897000000    -3.846000000
H     6.409000000     1.412000000    -3.811000000
C     4.228000000     1.504000000    -4.188000000
O     4.296000000     2.828000000    -4.174000000
C     3.358000000     3.635000000    -4.647000000
C     2.699000000     4.506000000    -3.788000000
H     2.821000000     4.387000000    -2.715000000
C     3.062000000     3.570000000    -6.035000000
H     3.592000000     2.911000000    -6.719000000
C     2.231000000     4.557000000    -6.566000000
H     2.171000000     4.710000000    -7.640000000
C     1.550000000     5.438000000    -5.708000000
H     1.015000000     6.250000000    -6.194000000
C     1.756000000     5.371000000    -4.308000000
O     0.981000000     6.114000000    -3.412000000
C    -0.026000000     5.659000000    -2.511000000
C    -0.291000000     6.439000000    -1.398000000
H     0.178000000     7.407000000    -1.243000000
C    -1.078000000     5.865000000    -0.399000000
O    -1.311000000     6.626000000     0.750000000
C    -2.124000000     6.337000000     1.840000000
C    -3.480000000     6.742000000     1.879000000
H    -3.859000000     7.423000000     1.121000000
C    -4.275000000     6.400000000     2.974000000
H    -5.257000000     6.866000000     2.979000000
C    -3.816000000     5.623000000     3.992000000
H    -4.393000000     5.390000000     4.884000000
C    -2.473000000     5.203000000     3.952000000
C    -1.661000000     5.584000000     2.920000000
H    -0.607000000     5.318000000     2.935000000
C     3.449000000     0.911000000     0.182000000
H     4.210000000     1.160000000    -0.553000000
C     2.181000000     0.636000000    -0.274000000
H     1.932000000     0.935000000    -1.289000000
C     1.209000000     0.177000000     0.631000000
C    -0.270000000     0.047000000     0.240000000
H    -0.292000000    -0.071000000    -0.845000000
H    -0.763000000    -0.855000000     0.608000000
H    -0.826000000     0.950000000     0.503000000
C     1.654000000    -0.029000000     1.950000000
H     1.014000000    -0.405000000     2.744000000
C     3.024000000     0.147000000     2.353000000
H     3.230000000    -0.153000000     3.377000000
C     3.860000000     0.766000000     1.492000000
C     5.335000000     1.087000000     1.929000000
O     5.708000000     1.127000000     3.120000000
O     6.100000000     1.530000000     1.059000000
O     7.848000000     1.247000000    -0.834000000
H     8.587000000     0.976000000    -0.290000000
H     7.096000000     1.232000000    -0.242000000
O     1.939000000     3.300000000     2.252000000
H     2.112000000     2.378000000     2.059000000
H     1.874000000     3.337000000     3.206000000
O     6.389000000     6.460000000     1.514000000
H     6.683000000     6.207000000     2.389000000
H     5.973000000     5.673000000     1.164000000
O     8.404000000     2.801000000    -2.901000000
H     8.250000000     2.235000000    -2.145000000
H     7.960000000     3.620000000    -2.681000000
O     7.264000000     4.815000000    -1.789000000
H     7.978000000     5.027000000    -1.188000000
H     6.568000000     4.478000000    -1.225000000
O     8.582000000    -1.376000000     1.898000000
H     8.354000000    -1.473000000     0.974000000
H     9.170000000    -0.621000000     1.921000000
O    10.622000000     0.238000000     4.288000000
H     9.681000000     0.292000000     4.119000000
H    10.738000000     0.667000000     5.135000000
O     3.210000000     5.748000000     4.791000000
H     3.269000000     4.838000000     4.501000000
H     2.697000000     6.184000000     4.110000000
O     7.630000000    -0.333000000     4.291000000
H     6.893000000     0.007000000     3.784000000
H     8.081000000    -0.926000000     3.690000000
O     2.429000000     2.990000000     5.026000000
H     2.328000000     3.452000000     5.858000000
H     3.112000000     2.341000000     5.194000000
O     2.244000000     5.055000000     0.221000000
H     1.668000000     4.410000000    -0.190000000
H     2.048000000     4.989000000     1.155000000
O     8.628000000    -3.669000000     3.073000000
H     8.386000000    -2.796000000     2.765000000
H     9.479000000    -3.547000000     3.495000000
O     5.745000000     3.568000000     4.138000000
H     5.182000000     3.247000000     4.842000000
H     5.961000000     2.788000000     3.628000000
O     8.482000000     1.950000000     2.345000000
H     7.823000000     2.014000000     1.654000000
H     7.976000000     1.861000000     3.152000000
O     7.155000000     0.663000000     6.675000000
H     7.528000000     0.234000000     7.445000000
H     7.521000000     0.183000000     5.932000000
O     5.352000000     3.915000000     0.191000000
H     5.588000000     3.069000000     0.572000000
H     4.395000000     3.921000000     0.195000000
O     4.594000000     1.074000000     5.459000000
H     5.350000000     1.164000000     6.040000000
H     4.971000000     1.024000000     4.581000000
O    10.667000000     3.778000000     1.874000000
H    10.544000000     4.076000000     2.775000000
H    10.060000000     3.044000000     1.779000000
O     7.239000000     5.758000000     3.951000000
H     6.712000000     4.961000000     3.892000000
H     8.144000000     5.448000000     3.921000000
