218
-1441.83336
C     2.268000000    -3.595000000     3.678000000
H     2.506000000    -4.480000000     3.094000000
C     0.990000000    -2.971000000     3.559000000
C     0.740000000    -1.768000000     4.287000000
H    -0.208000000    -1.251000000     4.160000000
C     0.027000000    -3.351000000     2.420000000
O     0.489000000    -4.562000000     1.668000000
H    -0.016000000    -2.496000000     1.729000000
O    -1.280000000    -3.635000000     2.954000000
C    -2.366000000    -3.051000000     2.313000000
C    -2.876000000    -1.813000000     2.751000000
H    -2.360000000    -1.284000000     3.549000000
C    -3.783000000    -1.236000000     1.986000000
O    -4.258000000    -0.002000000     2.403000000
C    -4.429000000    -1.812000000     0.886000000
C    -5.517000000    -1.150000000     0.087000000
H    -6.078000000    -1.884000000    -0.495000000
C    -5.014000000    -0.142000000    -0.896000000
C    -4.623000000    -0.608000000    -2.192000000
H    -4.813000000    -1.657000000    -2.404000000
H    -6.158000000    -0.764000000     0.882000000
C    -3.953000000    -3.057000000     0.485000000
H    -4.482000000    -3.546000000    -0.328000000
C    -2.862000000    -3.668000000     1.162000000
C    -2.331000000    -5.048000000     0.612000000
H    -3.096000000    -5.558000000     0.023000000
H    -2.189000000    -5.757000000     1.431000000
C    -1.057000000    -4.917000000    -0.208000000
C    -1.243000000    -4.793000000    -1.613000000
H    -2.209000000    -4.775000000    -2.111000000
C     0.228000000    -4.827000000     0.343000000
C     1.290000000    -4.545000000    -0.475000000
H     2.220000000    -4.412000000     0.073000000
C     1.129000000    -4.327000000    -1.833000000
O     2.233000000    -3.798000000    -2.422000000
C     2.207000000    -2.389000000    -2.725000000
C     3.592000000    -1.779000000    -2.462000000
C     4.163000000    -0.897000000    -3.392000000
H     3.635000000    -0.522000000    -4.265000000
C     4.264000000    -2.097000000    -1.269000000
H     3.790000000    -2.796000000    -0.584000000
O     1.838000000    -2.158000000    -4.091000000
H     1.443000000    -1.933000000    -2.078000000
C    -0.117000000    -4.425000000    -2.421000000
C    -0.222000000    -4.159000000    -3.949000000
H    -0.940000000    -4.841000000    -4.410000000
H     0.717000000    -4.374000000    -4.463000000
C    -0.503000000    -2.629000000    -4.231000000
C    -1.802000000    -2.107000000    -4.379000000
H    -2.620000000    -2.822000000    -4.358000000
C     0.601000000    -1.750000000    -4.194000000
C     0.307000000    -0.402000000    -4.450000000
H     1.193000000     0.217000000    -4.570000000
C    -0.927000000     0.112000000    -4.401000000
O    -1.029000000     1.414000000    -4.441000000
C    -1.373000000     2.051000000    -3.227000000
C    -0.442000000     3.293000000    -3.022000000
C     0.844000000     3.376000000    -3.542000000
H     1.219000000     2.495000000    -4.057000000
C    -0.857000000     4.324000000    -2.227000000
H    -1.871000000     4.139000000    -1.883000000
O    -2.767000000     2.379000000    -3.328000000
H    -1.198000000     1.349000000    -2.399000000
C    -2.034000000    -0.738000000    -4.344000000
C    -3.475000000    -0.182000000    -4.394000000
H    -4.179000000    -0.959000000    -4.702000000
H    -3.641000000     0.601000000    -5.137000000
C    -3.978000000     0.316000000    -3.092000000
C    -3.605000000     1.586000000    -2.585000000
C    -3.958000000     2.026000000    -1.320000000
H    -3.608000000     2.910000000    -0.793000000
C    -4.727000000     1.190000000    -0.520000000
O    -4.817000000     1.537000000     0.769000000
C    -3.804000000     1.126000000     1.644000000
H    -2.895000000     0.866000000     1.082000000
C    -3.392000000     2.222000000     2.629000000
C    -2.975000000     1.891000000     3.944000000
H    -2.765000000     0.848000000     4.166000000
C    -3.410000000     3.587000000     2.246000000
H    -3.668000000     3.882000000     1.232000000
C    -2.963000000     4.565000000     3.114000000
O    -2.802000000     5.866000000     2.688000000
C    -2.641000000     4.207000000     4.424000000
H    -2.385000000     4.968000000     5.157000000
C    -2.655000000     2.845000000     4.864000000
O    -2.426000000     2.650000000     6.209000000
C    -1.574000000     1.643000000     6.642000000
C    -0.361000000     1.384000000     5.954000000
H    -0.106000000     2.038000000     5.124000000
C    -1.831000000     1.039000000     7.866000000
H    -2.673000000     1.442000000     8.424000000
C    -1.087000000    -0.049000000     8.346000000
H    -1.239000000    -0.358000000     9.377000000
C     0.028000000    -0.438000000     7.593000000
H     0.724000000    -1.191000000     7.953000000
C     0.390000000     0.295000000     6.416000000
O     1.501000000    -0.026000000     5.709000000
C     1.716000000    -1.236000000     5.082000000
C     2.993000000    -1.728000000     5.103000000
H     3.789000000    -1.174000000     5.593000000
C     3.227000000    -2.990000000     4.492000000
O     4.443000000    -3.637000000     4.437000000
C     5.020000000    -3.735000000     3.205000000
C     5.077000000    -2.709000000     2.234000000
H     4.619000000    -1.733000000     2.376000000
C     5.646000000    -4.937000000     2.984000000
H     5.714000000    -5.721000000     3.735000000
C     6.335000000    -5.249000000     1.811000000
H     6.895000000    -6.180000000     1.770000000
C     6.485000000    -4.186000000     0.881000000
H     7.069000000    -4.421000000    -0.005000000
C     5.877000000    -2.950000000     1.090000000
O     6.187000000    -1.848000000     0.267000000
C     5.541000000    -1.620000000    -0.945000000
C     6.069000000    -0.649000000    -1.861000000
H     7.010000000    -0.131000000    -1.690000000
C     5.352000000    -0.289000000    -3.027000000
O     5.992000000     0.653000000    -3.888000000
C     5.276000000     1.703000000    -4.442000000
C     4.534000000     2.570000000    -3.662000000
H     4.399000000     2.260000000    -2.629000000
C     5.389000000     1.947000000    -5.789000000
H     6.035000000     1.295000000    -6.373000000
C     4.718000000     3.037000000    -6.365000000
H     4.887000000     3.303000000    -7.405000000
C     3.957000000     3.920000000    -5.630000000
H     3.373000000     4.725000000    -6.069000000
C     3.865000000     3.594000000    -4.228000000
O     3.127000000     4.362000000    -3.412000000
C     1.740000000     4.373000000    -3.135000000
C     1.212000000     5.461000000    -2.404000000
H     1.830000000     6.315000000    -2.136000000
C    -0.133000000     5.439000000    -2.019000000
O    -0.635000000     6.604000000    -1.383000000
C    -1.774000000     6.661000000    -0.660000000
C    -3.026000000     6.864000000    -1.204000000
H    -3.149000000     7.106000000    -2.256000000
C    -4.172000000     6.700000000    -0.471000000
H    -5.148000000     6.821000000    -0.933000000
C    -4.091000000     6.414000000     0.908000000
H    -5.003000000     6.301000000     1.488000000
C    -2.819000000     6.149000000     1.409000000
C    -1.706000000     6.304000000     0.673000000
H    -0.713000000     6.107000000     1.070000000
C     2.074000000     1.565000000     0.067000000
H     2.983000000     1.836000000    -0.465000000
C     1.181000000     0.742000000    -0.607000000
H     1.353000000     0.573000000    -1.667000000
C     0.069000000     0.116000000     0.013000000
C    -0.859000000    -0.765000000    -0.773000000
H    -0.428000000    -0.684000000    -1.773000000
H    -0.830000000    -1.839000000    -0.573000000
H    -1.897000000    -0.430000000    -0.751000000
C    -0.233000000     0.483000000     1.295000000
H    -1.063000000     0.000000000     1.804000000
C     0.683000000     1.226000000     2.020000000
H     0.601000000     1.307000000     3.100000000
C     1.875000000     1.770000000     1.466000000
C     2.839000000     2.659000000     2.239000000
O     2.673000000     2.821000000     3.424000000
O     3.782000000     3.050000000     1.660000000
O     2.069000000     5.590000000     3.985000000
H     2.614000000     5.886000000     3.256000000
H     2.135000000     4.635000000     3.961000000
O     6.796000000     3.149000000     7.735000000
H     6.826000000     2.996000000     6.791000000
H     6.012000000     2.684000000     8.029000000
O     3.067000000     4.012000000     6.241000000
H     3.502000000     3.201000000     6.505000000
H     2.958000000     3.929000000     5.294000000
O     4.249000000     1.425000000     4.878000000
H     3.797000000     1.814000000     4.129000000
H     3.546000000     1.167000000     5.474000000
O     3.924000000     6.767000000     7.027000000
H     3.267000000     7.462000000     7.058000000
H     3.434000000     5.985000000     6.772000000
O     5.776000000     1.238000000     0.865000000
H     5.252000000     1.958000000     1.216000000
H     5.133000000     0.617000000     0.524000000
O     5.642000000     3.740000000     3.560000000
H     5.213000000     3.467000000     2.750000000
H     5.141000000     3.310000000     4.253000000
O     0.901000000     6.723000000     6.129000000
H     1.167000000     7.642000000     6.145000000
H     1.518000000     6.306000000     5.528000000
O     8.572000000     2.140000000     0.833000000
H     8.414000000     2.441000000    -0.062000000
H     7.738000000     2.274000000     1.282000000
O     4.353000000     1.893000000     7.695000000
H     3.580000000     2.022000000     8.246000000
H     4.569000000     0.967000000     7.800000000
O     6.663000000     3.903000000    -0.648000000
H     6.970000000     4.759000000    -0.349000000
H     5.719000000     3.918000000    -0.491000000
O     4.526000000     7.312000000    -1.334000000
H     4.302000000     6.605000000    -0.729000000
H     5.395000000     7.081000000    -1.662000000
O     3.338000000     7.373000000     2.227000000
H     3.624000000     8.281000000     2.323000000
H     3.677000000     7.105000000     1.373000000
O     0.380000000     7.444000000     2.766000000
H    -0.057000000     7.485000000     3.616000000
H     1.263000000     7.132000000     2.964000000
O     3.631000000     4.950000000     0.010000000
H     3.795000000     4.364000000     0.748000000
H     3.099000000     4.432000000    -0.594000000
O     7.640000000     5.886000000     0.975000000
H     8.287000000     5.416000000     1.500000000
H     7.256000000     6.521000000     1.580000000
O     7.202000000     0.910000000     5.448000000
H     6.316000000     1.217000000     5.257000000
H     7.110000000    -0.037000000     5.556000000
O     1.076000000     4.746000000     8.484000000
H     1.586000000     5.355000000     9.019000000
H     1.175000000     5.072000000     7.590000000
O     6.640000000     6.247000000     4.041000000
H     6.212000000     5.403000000     3.899000000
H     6.142000000     6.653000000     4.750000000
