218
-1454.70410
C     2.048000000    -3.937000000     3.754000000
H     2.295000000    -4.773000000     3.104000000
C     0.782000000    -3.346000000     3.707000000
C     0.491000000    -2.336000000     4.601000000
H    -0.429000000    -1.770000000     4.482000000
C    -0.160000000    -3.596000000     2.494000000
O     0.191000000    -4.835000000     1.788000000
H    -0.080000000    -2.775000000     1.766000000
O    -1.559000000    -3.637000000     2.990000000
C    -2.496000000    -2.981000000     2.223000000
C    -3.044000000    -1.771000000     2.660000000
H    -2.712000000    -1.355000000     3.607000000
C    -4.000000000    -1.114000000     1.954000000
O    -4.318000000     0.136000000     2.374000000
C    -4.479000000    -1.692000000     0.749000000
C    -5.486000000    -0.940000000    -0.161000000
H    -6.169000000    -1.625000000    -0.667000000
C    -4.887000000     0.043000000    -1.104000000
C    -4.536000000    -0.438000000    -2.348000000
H    -4.729000000    -1.473000000    -2.618000000
H    -6.121000000    -0.476000000     0.597000000
C    -3.949000000    -2.968000000     0.335000000
H    -4.211000000    -3.351000000    -0.648000000
C    -2.939000000    -3.562000000     1.012000000
C    -2.462000000    -4.920000000     0.542000000
H    -3.146000000    -5.506000000    -0.076000000
H    -2.313000000    -5.623000000     1.365000000
C    -1.121000000    -4.846000000    -0.260000000
C    -1.212000000    -4.763000000    -1.636000000
H    -2.199000000    -4.859000000    -2.081000000
C     0.061000000    -4.775000000     0.409000000
C     1.201000000    -4.458000000    -0.326000000
H     2.198000000    -4.352000000     0.093000000
C     1.111000000    -4.229000000    -1.685000000
O     2.301000000    -3.834000000    -2.262000000
C     2.368000000    -2.424000000    -2.568000000
C     3.760000000    -1.928000000    -2.179000000
C     4.351000000    -0.773000000    -2.819000000
H     3.852000000    -0.376000000    -3.700000000
C     4.462000000    -2.474000000    -1.064000000
H     4.028000000    -3.390000000    -0.670000000
O     2.084000000    -2.375000000    -3.984000000
H     1.587000000    -1.866000000    -2.032000000
C    -0.091000000    -4.434000000    -2.404000000
C    -0.194000000    -4.188000000    -3.900000000
H    -1.042000000    -4.725000000    -4.330000000
H     0.668000000    -4.476000000    -4.504000000
C    -0.333000000    -2.691000000    -4.178000000
C    -1.604000000    -2.155000000    -4.182000000
H    -2.426000000    -2.864000000    -4.131000000
C     0.841000000    -1.891000000    -4.307000000
C     0.669000000    -0.502000000    -4.400000000
H     1.543000000     0.142000000    -4.457000000
C    -0.617000000     0.003000000    -4.483000000
O    -0.686000000     1.377000000    -4.565000000
C    -1.185000000     2.260000000    -3.519000000
C    -0.343000000     3.477000000    -3.293000000
C     1.076000000     3.433000000    -3.517000000
H     1.621000000     2.588000000    -3.929000000
C    -0.884000000     4.580000000    -2.642000000
H    -1.962000000     4.719000000    -2.644000000
O    -2.661000000     2.495000000    -3.589000000
H    -1.089000000     1.676000000    -2.592000000
C    -1.777000000    -0.771000000    -4.332000000
C    -3.163000000    -0.215000000    -4.466000000
H    -3.872000000    -0.968000000    -4.817000000
H    -3.031000000     0.546000000    -5.238000000
C    -3.726000000     0.340000000    -3.173000000
C    -3.437000000     1.670000000    -2.785000000
C    -3.828000000     2.119000000    -1.537000000
H    -3.421000000     3.073000000    -1.211000000
C    -4.620000000     1.326000000    -0.676000000
O    -4.677000000     1.784000000     0.645000000
C    -3.773000000     1.231000000     1.627000000
H    -2.893000000     0.818000000     1.112000000
C    -3.311000000     2.475000000     2.496000000
C    -2.822000000     2.271000000     3.853000000
H    -2.846000000     1.249000000     4.220000000
C    -3.203000000     3.759000000     1.977000000
H    -3.495000000     3.895000000     0.939000000
C    -2.683000000     4.809000000     2.770000000
O    -2.641000000     6.099000000     2.372000000
C    -2.271000000     4.583000000     4.033000000
H    -1.813000000     5.399000000     4.585000000
C    -2.281000000     3.364000000     4.614000000
O    -1.672000000     3.180000000     5.817000000
C    -1.441000000     1.929000000     6.264000000
C    -0.237000000     1.201000000     6.014000000
H     0.554000000     1.670000000     5.435000000
C    -2.492000000     1.268000000     6.969000000
H    -3.425000000     1.751000000     7.250000000
C    -2.336000000    -0.037000000     7.405000000
H    -3.212000000    -0.470000000     7.881000000
C    -1.119000000    -0.758000000     7.239000000
H    -1.089000000    -1.818000000     7.477000000
C    -0.066000000    -0.122000000     6.558000000
O     1.171000000    -0.721000000     6.343000000
C     1.420000000    -1.848000000     5.543000000
C     2.691000000    -2.407000000     5.520000000
H     3.471000000    -2.071000000     6.198000000
C     2.990000000    -3.431000000     4.602000000
O     4.273000000    -3.879000000     4.635000000
C     4.901000000    -4.173000000     3.461000000
C     5.092000000    -3.191000000     2.487000000
H     4.921000000    -2.171000000     2.822000000
C     5.302000000    -5.546000000     3.221000000
H     5.098000000    -6.282000000     3.994000000
C     5.910000000    -5.854000000     2.008000000
H     6.280000000    -6.841000000     1.743000000
C     6.210000000    -4.800000000     1.100000000
H     6.640000000    -4.943000000     0.112000000
C     5.826000000    -3.474000000     1.386000000
O     6.267000000    -2.462000000     0.539000000
C     5.563000000    -1.872000000    -0.508000000
C     6.100000000    -0.815000000    -1.215000000
H     7.030000000    -0.439000000    -0.795000000
C     5.454000000    -0.228000000    -2.290000000
O     6.135000000     0.748000000    -2.998000000
C     5.444000000     1.677000000    -3.795000000
C     4.680000000     2.705000000    -3.168000000
H     4.580000000     2.797000000    -2.089000000
C     5.695000000     1.791000000    -5.136000000
H     6.356000000     1.109000000    -5.665000000
C     4.988000000     2.752000000    -5.884000000
H     5.168000000     2.799000000    -6.955000000
C     4.174000000     3.707000000    -5.269000000
H     3.665000000     4.485000000    -5.832000000
C     4.020000000     3.708000000    -3.906000000
O     3.187000000     4.593000000    -3.286000000
C     1.816000000     4.547000000    -3.078000000
C     1.230000000     5.664000000    -2.493000000
H     1.902000000     6.410000000    -2.077000000
C    -0.121000000     5.654000000    -2.257000000
O    -0.727000000     6.883000000    -1.959000000
C    -1.837000000     6.910000000    -1.142000000
C    -2.950000000     7.642000000    -1.507000000
H    -2.996000000     7.889000000    -2.564000000
C    -3.972000000     7.809000000    -0.511000000
H    -4.842000000     8.431000000    -0.704000000
C    -3.892000000     7.159000000     0.721000000
H    -4.652000000     7.355000000     1.473000000
C    -2.747000000     6.569000000     1.094000000
C    -1.725000000     6.438000000     0.173000000
H    -0.744000000     6.069000000     0.463000000
C     1.421000000     1.860000000    -0.496000000
H     2.188000000     2.256000000    -1.157000000
C     0.594000000     0.782000000    -0.926000000
H     0.748000000     0.381000000    -1.925000000
C    -0.304000000     0.271000000    -0.049000000
C    -0.992000000    -0.968000000    -0.445000000
H    -2.071000000    -0.826000000    -0.355000000
H    -0.827000000    -1.218000000    -1.495000000
H    -0.741000000    -1.806000000     0.207000000
C    -0.410000000     0.796000000     1.270000000
H    -1.095000000     0.349000000     1.985000000
C     0.249000000     1.948000000     1.611000000
H    -0.021000000     2.358000000     2.581000000
C     1.225000000     2.513000000     0.742000000
C     2.034000000     3.698000000     1.186000000
O     1.761000000     4.199000000     2.235000000
O     3.110000000     3.879000000     0.713000000
O     1.050000000     8.699000000    -0.292000000
H     1.791000000     8.388000000     0.227000000
H     0.346000000     8.080000000    -0.100000000
O     6.992000000     2.010000000     3.216000000
H     6.155000000     2.369000000     3.512000000
H     6.953000000     2.067000000     2.261000000
O     1.991000000     6.166000000     3.959000000
H     1.810000000     6.875000000     3.343000000
H     1.734000000     5.371000000     3.492000000
O     2.341000000     4.350000000     6.297000000
H     2.325000000     3.647000000     5.648000000
H     2.605000000     5.126000000     5.803000000
O     3.609000000     7.521000000     5.929000000
H     3.017000000     7.429000000     5.183000000
H     4.216000000     6.785000000     5.845000000
O     7.185000000     7.976000000     1.383000000
H     6.359000000     7.828000000     1.844000000
H     7.010000000     7.697000000     0.484000000
O     2.358000000     2.426000000     4.036000000
H     1.999000000     3.097000000     3.456000000
H     2.447000000     1.652000000     3.481000000
O     4.190000000     6.001000000    -0.227000000
H     4.228000000     5.982000000    -1.184000000
H     3.712000000     5.206000000     0.009000000
O     4.693000000     9.321000000    -1.501000000
H     4.499000000     8.385000000    -1.531000000
H     4.832000000     9.566000000    -2.416000000
O     4.881000000     7.187000000     2.066000000
H     4.611000000     6.752000000     1.258000000
H     4.100000000     7.171000000     2.620000000
O     6.552000000     2.165000000     0.060000000
H     6.510000000     2.040000000    -0.888000000
H     7.190000000     2.867000000     0.180000000
O     7.076000000     5.080000000     3.852000000
H     6.746000000     5.468000000     4.662000000
H     6.429000000     4.412000000     3.626000000
O     2.739000000    -0.181000000     2.650000000
H     3.411000000     0.122000000     2.040000000
H     1.920000000    -0.108000000     2.160000000
O     5.324000000     2.724000000     6.379000000
H     4.781000000     2.742000000     7.167000000
H     5.050000000     1.930000000     5.919000000
O     4.345000000     1.112000000     1.150000000
H     3.954000000     1.985000000     1.168000000
H     5.119000000     1.207000000     0.594000000
O     7.035000000     6.368000000    -1.097000000
H     7.510000000     5.544000000    -1.203000000
H     6.185000000     6.111000000    -0.740000000
O     4.684000000     3.641000000     2.858000000
H     3.822000000     3.684000000     3.272000000
H     4.507000000     3.761000000     1.925000000
O     4.981000000     0.164000000     4.289000000
H     4.176000000    -0.263000000     3.997000000
H     5.245000000     0.710000000     3.548000000
O     2.008000000     8.451000000     2.651000000
H     1.381000000     8.641000000     3.348000000
H     2.625000000     9.182000000     2.677000000
