218
-1448.76941
C     1.881000000    -3.921000000     3.380000000
H     2.044000000    -4.807000000     2.771000000
C     0.671000000    -3.247000000     3.550000000
C     0.507000000    -2.228000000     4.461000000
H    -0.457000000    -1.726000000     4.460000000
C    -0.441000000    -3.530000000     2.580000000
O    -0.146000000    -4.739000000     1.861000000
H    -0.484000000    -2.652000000     1.919000000
O    -1.721000000    -3.536000000     3.320000000
C    -2.692000000    -2.843000000     2.672000000
C    -3.008000000    -1.666000000     3.278000000
H    -2.542000000    -1.207000000     4.147000000
C    -3.886000000    -0.818000000     2.575000000
O    -4.097000000     0.437000000     3.068000000
C    -4.541000000    -1.265000000     1.392000000
C    -5.565000000    -0.392000000     0.611000000
H    -6.279000000    -1.049000000     0.111000000
C    -4.859000000     0.468000000    -0.379000000
C    -4.706000000     0.008000000    -1.715000000
H    -5.187000000    -0.921000000    -2.012000000
H    -6.196000000     0.133000000     1.332000000
C    -4.161000000    -2.510000000     0.913000000
H    -4.605000000    -2.914000000     0.006000000
C    -3.216000000    -3.283000000     1.487000000
C    -2.881000000    -4.637000000     0.891000000
H    -3.666000000    -5.146000000     0.328000000
H    -2.698000000    -5.439000000     1.608000000
C    -1.644000000    -4.590000000    -0.018000000
C    -1.811000000    -4.313000000    -1.307000000
H    -2.820000000    -4.083000000    -1.640000000
C    -0.345000000    -4.673000000     0.512000000
C     0.796000000    -4.445000000    -0.289000000
H     1.748000000    -4.370000000     0.231000000
C     0.644000000    -4.317000000    -1.613000000
O     1.789000000    -3.906000000    -2.292000000
C     1.884000000    -2.595000000    -2.912000000
C     3.343000000    -2.010000000    -2.749000000
C     3.860000000    -0.975000000    -3.550000000
H     3.207000000    -0.399000000    -4.201000000
C     4.139000000    -2.635000000    -1.822000000
H     3.845000000    -3.456000000    -1.173000000
O     1.382000000    -2.399000000    -4.225000000
H     1.373000000    -1.879000000    -2.251000000
C    -0.683000000    -4.257000000    -2.164000000
C    -0.903000000    -3.977000000    -3.613000000
H    -1.838000000    -4.378000000    -4.010000000
H    -0.077000000    -4.455000000    -4.145000000
C    -0.903000000    -2.534000000    -3.958000000
C    -2.178000000    -1.860000000    -3.878000000
H    -3.088000000    -2.335000000    -3.520000000
C     0.232000000    -1.781000000    -4.338000000
C     0.098000000    -0.423000000    -4.544000000
H     0.966000000     0.154000000    -4.853000000
C    -1.129000000     0.203000000    -4.432000000
O    -1.182000000     1.576000000    -4.527000000
C    -1.285000000     2.335000000    -3.253000000
C    -0.311000000     3.482000000    -3.124000000
C     0.987000000     3.263000000    -3.640000000
H     1.207000000     2.352000000    -4.191000000
C    -0.589000000     4.687000000    -2.475000000
H    -1.560000000     4.933000000    -2.054000000
O    -2.596000000     2.749000000    -3.017000000
H    -1.068000000     1.631000000    -2.436000000
C    -2.258000000    -0.480000000    -4.110000000
C    -3.654000000     0.155000000    -3.972000000
H    -4.468000000    -0.486000000    -4.317000000
H    -3.748000000     0.970000000    -4.693000000
C    -3.860000000     0.690000000    -2.606000000
C    -3.406000000     2.004000000    -2.244000000
C    -3.596000000     2.406000000    -0.910000000
H    -3.040000000     3.263000000    -0.538000000
C    -4.282000000     1.671000000    -0.023000000
O    -4.382000000     2.154000000     1.261000000
C    -3.465000000     1.514000000     2.245000000
H    -2.625000000     1.052000000     1.707000000
C    -2.734000000     2.495000000     3.016000000
C    -2.412000000     2.234000000     4.365000000
H    -2.717000000     1.306000000     4.843000000
C    -2.331000000     3.810000000     2.487000000
H    -2.604000000     4.006000000     1.453000000
C    -1.590000000     4.641000000     3.272000000
O    -1.124000000     5.802000000     2.749000000
C    -1.221000000     4.339000000     4.553000000
H    -0.665000000     5.075000000     5.127000000
C    -1.722000000     3.165000000     5.105000000
O    -1.357000000     2.939000000     6.382000000
C    -1.051000000     1.648000000     6.820000000
C     0.164000000     1.053000000     6.427000000
H     0.842000000     1.534000000     5.726000000
C    -2.012000000     0.978000000     7.542000000
H    -2.961000000     1.452000000     7.779000000
C    -1.768000000    -0.405000000     7.766000000
H    -2.582000000    -0.951000000     8.236000000
C    -0.576000000    -1.028000000     7.469000000
H    -0.503000000    -2.095000000     7.663000000
C     0.387000000    -0.359000000     6.669000000
O     1.554000000    -0.936000000     6.283000000
C     1.597000000    -1.946000000     5.319000000
C     2.893000000    -2.514000000     5.131000000
H     3.734000000    -2.183000000     5.736000000
C     2.987000000    -3.530000000     4.113000000
O     4.239000000    -4.090000000     3.851000000
C     4.657000000    -4.389000000     2.548000000
C     4.959000000    -3.393000000     1.625000000
H     4.764000000    -2.367000000     1.926000000
C     4.955000000    -5.723000000     2.119000000
H     4.820000000    -6.505000000     2.862000000
C     5.675000000    -5.930000000     0.987000000
H     6.095000000    -6.891000000     0.703000000
C     5.986000000    -4.886000000     0.064000000
H     6.545000000    -4.928000000    -0.868000000
C     5.593000000    -3.628000000     0.457000000
O     5.967000000    -2.528000000    -0.244000000
C     5.435000000    -2.206000000    -1.519000000
C     5.925000000    -1.144000000    -2.227000000
H     6.900000000    -0.717000000    -2.006000000
C     5.197000000    -0.575000000    -3.285000000
O     5.683000000     0.337000000    -4.236000000
C     4.974000000     1.194000000    -5.007000000
C     4.330000000     2.213000000    -4.369000000
H     4.554000000     2.242000000    -3.306000000
C     4.890000000     0.981000000    -6.343000000
H     5.362000000     0.127000000    -6.823000000
C     4.140000000     1.966000000    -7.074000000
H     4.133000000     1.963000000    -8.161000000
C     3.491000000     3.056000000    -6.448000000
H     2.973000000     3.857000000    -6.969000000
C     3.621000000     3.206000000    -5.044000000
O     3.105000000     4.260000000    -4.316000000
C     1.924000000     4.226000000    -3.598000000
C     1.667000000     5.404000000    -2.909000000
H     2.460000000     6.097000000    -2.639000000
C     0.393000000     5.685000000    -2.396000000
O     0.109000000     6.928000000    -1.934000000
C    -0.728000000     7.018000000    -0.771000000
C    -1.706000000     8.038000000    -0.804000000
H    -1.887000000     8.691000000    -1.655000000
C    -2.531000000     8.229000000     0.343000000
H    -3.347000000     8.945000000     0.303000000
C    -2.369000000     7.416000000     1.450000000
H    -3.027000000     7.434000000     2.316000000
C    -1.403000000     6.391000000     1.509000000
C    -0.648000000     6.186000000     0.384000000
H     0.103000000     5.407000000     0.490000000
C     2.063000000     1.979000000    -0.838000000
H     2.772000000     2.267000000    -1.610000000
C     1.115000000     1.032000000    -1.188000000
H     1.200000000     0.554000000    -2.161000000
C     0.169000000     0.521000000    -0.230000000
C    -0.687000000    -0.675000000    -0.592000000
H    -1.688000000    -0.403000000    -0.251000000
H    -0.574000000    -0.844000000    -1.665000000
H    -0.326000000    -1.481000000     0.051000000
C     0.171000000     1.083000000     1.027000000
H    -0.472000000     0.545000000     1.719000000
C     1.155000000     2.023000000     1.393000000
H     1.094000000     2.334000000     2.433000000
C     2.133000000     2.494000000     0.513000000
C     3.239000000     3.427000000     0.991000000
O     3.039000000     4.139000000     1.926000000
O     4.319000000     3.383000000     0.455000000
O     3.424000000     8.661000000    -0.179000000
H     4.046000000     9.377000000    -0.052000000
H     3.857000000     7.898000000     0.204000000
O     7.901000000     1.566000000     4.610000000
H     7.343000000     1.666000000     3.839000000
H     7.289000000     1.421000000     5.331000000
O     7.009000000     3.605000000    -3.059000000
H     7.561000000     4.264000000    -2.637000000
H     7.627000000     3.016000000    -3.491000000
O     2.206000000     6.518000000     2.911000000
H     2.363000000     5.657000000     2.523000000
H     1.269000000     6.525000000     3.107000000
O     3.821000000     8.713000000     4.058000000
H     3.263000000     8.072000000     3.617000000
H     3.452000000     9.561000000     3.813000000
O     8.273000000     5.059000000    -1.005000000
H     9.227000000     5.141000000    -0.987000000
H     8.044000000     4.745000000    -0.130000000
O     3.711000000     2.507000000     4.148000000
H     3.211000000     3.020000000     3.513000000
H     3.674000000     1.611000000     3.813000000
O     8.310000000     0.563000000    -0.239000000
H     7.410000000     0.881000000    -0.308000000
H     8.844000000     1.278000000    -0.586000000
O     5.284000000     5.726000000    -2.095000000
H     5.425000000     4.871000000    -2.502000000
H     5.080000000     5.526000000    -1.181000000
O     4.511000000     6.304000000     0.843000000
H     4.196000000     5.400000000     0.813000000
H     4.825000000     6.419000000     1.740000000
O     8.522000000     3.540000000     1.193000000
H     7.863000000     3.117000000     1.744000000
H     9.163000000     3.890000000     1.811000000
O     3.322000000     0.108000000     2.726000000
H     3.964000000     0.257000000     2.032000000
H     2.477000000     0.117000000     2.276000000
O     3.154000000     5.385000000     5.139000000
H     3.163000000     4.457000000     4.904000000
H     2.822000000     5.827000000     4.358000000
O     5.278000000     0.373000000     0.944000000
H     5.628000000    -0.352000000     0.426000000
H     5.442000000     1.150000000     0.410000000
O     5.936000000     1.990000000    -0.947000000
H     5.266000000     2.587000000    -0.614000000
H     6.306000000     2.443000000    -1.705000000
O     6.164000000     2.784000000     2.555000000
H     5.688000000     3.536000000     2.204000000
H     5.671000000     2.024000000     2.247000000
O     5.521000000     3.323000000     6.173000000
H     5.996000000     4.076000000     5.823000000
H     5.212000000     2.853000000     5.398000000
O     5.963000000    -1.073000000     4.348000000
H     6.475000000    -0.940000000     3.550000000
H     5.082000000    -0.777000000     4.120000000
O     5.316000000     6.185000000     3.408000000
H     4.851000000     5.945000000     4.209000000
H     6.234000000     6.242000000     3.671000000
