218
-1468.93584
C     2.637000000    -3.535000000     3.087000000
H     2.485000000    -4.169000000     2.217000000
C     1.577000000    -2.903000000     3.630000000
C     1.742000000    -1.921000000     4.648000000
H     0.952000000    -1.279000000     5.027000000
C     0.204000000    -3.052000000     3.014000000
O     0.060000000    -4.341000000     2.398000000
H     0.036000000    -2.215000000     2.320000000
O    -0.859000000    -3.078000000     3.947000000
C    -1.930000000    -2.283000000     3.612000000
C    -1.929000000    -0.919000000     3.883000000
H    -1.237000000    -0.458000000     4.583000000
C    -2.909000000    -0.077000000     3.327000000
O    -2.750000000     1.283000000     3.647000000
C    -3.949000000    -0.582000000     2.620000000
C    -5.009000000     0.412000000     2.129000000
H    -6.046000000     0.074000000     2.079000000
C    -4.645000000     1.097000000     0.866000000
C    -5.095000000     0.545000000    -0.356000000
H    -5.535000000    -0.448000000    -0.401000000
H    -5.150000000     1.172000000     2.900000000
C    -3.966000000    -1.933000000     2.266000000
H    -4.755000000    -2.307000000     1.618000000
C    -2.952000000    -2.766000000     2.736000000
C    -2.875000000    -4.152000000     2.265000000
H    -3.916000000    -4.364000000     2.014000000
H    -2.672000000    -4.824000000     3.102000000
C    -1.980000000    -4.352000000     1.053000000
C    -2.583000000    -4.294000000    -0.226000000
H    -3.662000000    -4.180000000    -0.287000000
C    -0.545000000    -4.355000000     1.158000000
C     0.198000000    -4.336000000     0.021000000
H     1.279000000    -4.352000000     0.133000000
C    -0.393000000    -4.218000000    -1.233000000
O     0.463000000    -4.232000000    -2.301000000
C     0.613000000    -2.899000000    -2.801000000
C     2.066000000    -2.576000000    -3.122000000
C     2.477000000    -1.695000000    -4.139000000
H     1.746000000    -1.223000000    -4.791000000
C     2.989000000    -2.882000000    -2.166000000
H     2.620000000    -3.484000000    -1.340000000
O    -0.233000000    -2.758000000    -3.914000000
H     0.336000000    -2.172000000    -2.024000000
C    -1.769000000    -4.263000000    -1.388000000
C    -2.411000000    -4.112000000    -2.831000000
H    -3.376000000    -4.610000000    -2.938000000
H    -1.762000000    -4.669000000    -3.510000000
C    -2.488000000    -2.649000000    -3.110000000
C    -3.595000000    -1.833000000    -2.876000000
H    -4.459000000    -2.277000000    -2.389000000
C    -1.397000000    -2.062000000    -3.710000000
C    -1.425000000    -0.776000000    -4.176000000
H    -0.508000000    -0.324000000    -4.545000000
C    -2.537000000     0.007000000    -3.970000000
O    -2.338000000     1.307000000    -4.184000000
C    -2.109000000     2.251000000    -3.119000000
C    -1.015000000     3.254000000    -3.555000000
C    -0.105000000     2.869000000    -4.584000000
H    -0.296000000     1.988000000    -5.191000000
C    -0.819000000     4.480000000    -2.926000000
H    -1.579000000     4.892000000    -2.267000000
O    -3.404000000     2.788000000    -2.749000000
H    -1.801000000     1.631000000    -2.264000000
C    -3.623000000    -0.467000000    -3.216000000
C    -4.792000000     0.331000000    -2.832000000
H    -5.679000000    -0.306000000    -2.841000000
H    -4.858000000     1.075000000    -3.628000000
C    -4.641000000     1.106000000    -1.548000000
C    -3.957000000     2.337000000    -1.545000000
C    -3.592000000     2.943000000    -0.361000000
H    -3.000000000     3.854000000    -0.396000000
C    -3.853000000     2.300000000     0.873000000
O    -3.320000000     2.775000000     2.017000000
C    -2.239000000     2.036000000     2.560000000
H    -1.773000000     1.425000000     1.772000000
C    -1.248000000     3.025000000     3.179000000
C    -0.640000000     2.811000000     4.393000000
H    -0.861000000     1.968000000     5.043000000
C    -0.858000000     4.076000000     2.376000000
H    -1.247000000     4.211000000     1.370000000
C     0.057000000     5.001000000     2.788000000
O     0.445000000     6.109000000     2.083000000
C     0.748000000     4.742000000     3.927000000
H     1.563000000     5.405000000     4.207000000
C     0.425000000     3.658000000     4.788000000
O     1.112000000     3.456000000     6.000000000
C     1.262000000     2.206000000     6.640000000
C     2.283000000     1.431000000     6.219000000
H     2.889000000     1.874000000     5.433000000
C     0.430000000     1.799000000     7.675000000
H    -0.390000000     2.434000000     8.000000000
C     0.682000000     0.556000000     8.263000000
H     0.050000000     0.169000000     9.058000000
C     1.633000000    -0.299000000     7.775000000
H     1.720000000    -1.325000000     8.123000000
C     2.452000000     0.104000000     6.709000000
O     3.287000000    -0.754000000     6.120000000
C     3.054000000    -1.696000000     5.156000000
C     4.082000000    -2.455000000     4.616000000
H     5.113000000    -2.329000000     4.936000000
C     3.877000000    -3.458000000     3.694000000
O     4.973000000    -3.998000000     3.129000000
C     5.009000000    -4.429000000     1.861000000
C     5.123000000    -3.542000000     0.816000000
H     4.949000000    -2.477000000     0.944000000
C     5.121000000    -5.776000000     1.610000000
H     5.055000000    -6.515000000     2.405000000
C     5.272000000    -6.209000000     0.282000000
H     5.278000000    -7.280000000     0.094000000
C     5.137000000    -5.307000000    -0.768000000
H     5.263000000    -5.620000000    -1.801000000
C     5.199000000    -3.940000000    -0.506000000
O     5.388000000    -3.025000000    -1.476000000
C     4.351000000    -2.652000000    -2.368000000
C     4.744000000    -1.909000000    -3.459000000
H     5.808000000    -1.742000000    -3.604000000
C     3.766000000    -1.370000000    -4.292000000
O     4.289000000    -0.499000000    -5.239000000
C     3.465000000     0.269000000    -6.086000000
C     2.975000000     1.446000000    -5.708000000
H     3.366000000     2.042000000    -4.887000000
C     3.009000000    -0.373000000    -7.240000000
H     3.414000000    -1.341000000    -7.522000000
C     1.966000000     0.183000000    -7.966000000
H     1.576000000    -0.504000000    -8.712000000
C     1.475000000     1.409000000    -7.599000000
H     0.708000000     1.911000000    -8.183000000
C     1.966000000     2.065000000    -6.479000000
O     1.610000000     3.406000000    -6.158000000
C     0.941000000     3.670000000    -4.976000000
C     1.169000000     4.824000000    -4.261000000
H     1.953000000     5.510000000    -4.570000000
C     0.269000000     5.273000000    -3.253000000
O     0.564000000     6.421000000    -2.501000000
C    -0.102000000     6.709000000    -1.369000000
C    -1.288000000     7.456000000    -1.359000000
H    -1.565000000     7.764000000    -2.365000000
C    -1.930000000     7.732000000    -0.138000000
H    -2.833000000     8.337000000    -0.138000000
C    -1.447000000     7.203000000     1.050000000
H    -1.868000000     7.506000000     2.005000000
C    -0.201000000     6.560000000     1.006000000
C     0.451000000     6.283000000    -0.238000000
H     1.259000000     5.559000000    -0.292000000
C     2.159000000     2.854000000    -0.212000000
H     2.499000000     3.477000000    -1.035000000
C     1.157000000     1.892000000    -0.489000000
H     0.749000000     1.795000000    -1.492000000
C     0.765000000     0.965000000     0.469000000
C    -0.272000000     0.022000000     0.071000000
H    -0.746000000    -0.419000000     0.950000000
H    -1.074000000     0.436000000    -0.544000000
H     0.066000000    -0.806000000    -0.556000000
C     1.278000000     0.991000000     1.785000000
H     0.942000000     0.336000000     2.585000000
C     2.295000000     1.940000000     2.043000000
H     2.770000000     1.876000000     3.019000000
C     2.697000000     2.855000000     1.070000000
C     3.742000000     3.837000000     1.428000000
O     4.351000000     3.834000000     2.483000000
O     4.047000000     4.647000000     0.583000000
O     8.733000000     3.700000000     4.225000000
H     8.020000000     4.056000000     3.695000000
H     9.519000000     3.848000000     3.699000000
O     7.155000000     5.539000000     2.525000000
H     6.237000000     5.798000000     2.438000000
H     7.287000000     4.888000000     1.836000000
O     3.317000000     8.585000000     2.623000000
H     2.571000000     8.517000000     3.219000000
H     3.795000000     7.765000000     2.744000000
O     4.448000000     6.318000000     3.420000000
H     4.161000000     6.273000000     4.332000000
H     4.390000000     5.416000000     3.106000000
O     5.602000000     8.547000000    -0.996000000
H     6.414000000     8.082000000    -0.793000000
H     4.908000000     7.952000000    -0.710000000
O     2.983000000     7.817000000    -2.643000000
H     2.389000000     7.069000000    -2.700000000
H     3.240000000     7.849000000    -1.721000000
O     5.227000000     2.847000000     4.800000000
H     4.882000000     3.395000000     4.095000000
H     6.176000000     2.954000000     4.745000000
O     5.463000000     0.395000000     2.951000000
H     5.706000000    -0.531000000     2.926000000
H     5.558000000     0.642000000     3.871000000
O     3.979000000     5.218000000     6.064000000
H     4.417000000     4.448000000     5.703000000
H     3.852000000     5.009000000     6.990000000
O     6.713000000     2.279000000    -3.075000000
H     6.508000000     2.957000000    -2.431000000
H     6.472000000     1.459000000    -2.645000000
O     5.759000000     8.538000000     4.745000000
H     6.408000000     8.187000000     5.353000000
H     5.582000000     7.817000000     4.140000000
O     9.456000000     2.209000000    -0.258000000
H     8.503000000     2.126000000    -0.281000000
H     9.619000000     3.139000000    -0.418000000
O     4.476000000    -0.013000000     0.450000000
H     3.642000000     0.282000000     0.816000000
H     5.091000000     0.042000000     1.181000000
O     5.441000000     3.947000000    -1.351000000
H     5.014000000     4.286000000    -0.564000000
H     4.838000000     4.163000000    -2.062000000
O     6.751000000    -0.406000000    -1.368000000
H     6.093000000    -0.006000000    -0.798000000
H     6.652000000    -1.347000000    -1.224000000
O     4.403000000     4.944000000    -3.675000000
H     4.869000000     5.739000000    -3.932000000
H     4.664000000     4.292000000    -4.325000000
O     7.648000000     5.908000000    -1.782000000
H     8.127000000     5.370000000    -1.151000000
H     6.732000000     5.830000000    -1.515000000
O     3.573000000     7.165000000     0.064000000
H     3.553000000     7.679000000     0.871000000
H     3.771000000     6.274000000     0.352000000
O     6.701000000     2.423000000     1.069000000
H     6.096000000     1.813000000     1.491000000
H     6.141000000     2.980000000     0.529000000
