218
-1489.78185
C    -0.094000000    -2.141000000     4.781000000
H     0.279000000    -3.015000000     4.254000000
C    -1.272000000    -1.545000000     4.329000000
C    -1.737000000    -0.382000000     4.983000000
H    -2.683000000     0.033000000     4.643000000
C    -1.993000000    -2.052000000     3.050000000
O    -2.055000000    -3.500000000     3.081000000
H    -1.504000000    -1.710000000     2.125000000
O    -3.399000000    -1.594000000     3.070000000
C    -3.936000000    -1.282000000     1.831000000
C    -4.045000000     0.019000000     1.552000000
H    -3.804000000     0.707000000     2.358000000
C    -4.476000000     0.547000000     0.344000000
O    -4.581000000     1.986000000     0.156000000
C    -4.755000000    -0.340000000    -0.725000000
C    -5.175000000     0.203000000    -2.103000000
H    -5.640000000    -0.604000000    -2.674000000
C    -4.006000000     0.659000000    -2.988000000
C    -3.448000000    -0.354000000    -3.770000000
H    -3.647000000    -1.421000000    -3.828000000
H    -5.812000000     1.088000000    -2.052000000
C    -4.728000000    -1.733000000    -0.427000000
H    -5.081000000    -2.419000000    -1.193000000
C    -4.354000000    -2.173000000     0.873000000
C    -4.131000000    -3.685000000     1.069000000
H    -4.835000000    -4.220000000     0.429000000
H    -4.451000000    -3.885000000     2.094000000
C    -2.655000000    -4.208000000     0.811000000
C    -2.259000000    -4.564000000    -0.475000000
H    -3.017000000    -4.517000000    -1.252000000
C    -1.681000000    -4.068000000     1.853000000
C    -0.374000000    -4.216000000     1.535000000
H     0.373000000    -4.027000000     2.302000000
C     0.054000000    -4.681000000     0.274000000
O     1.448000000    -4.753000000     0.040000000
C     2.090000000    -3.615000000    -0.559000000
C     3.386000000    -3.299000000     0.185000000
C     4.140000000    -2.273000000    -0.348000000
H     3.808000000    -1.862000000    -1.298000000
C     3.749000000    -3.863000000     1.404000000
H     3.095000000    -4.673000000     1.716000000
O     2.293000000    -3.778000000    -1.967000000
H     1.351000000    -2.815000000    -0.407000000
C    -0.910000000    -4.770000000    -0.748000000
C    -0.508000000    -4.909000000    -2.184000000
H    -1.362000000    -5.291000000    -2.747000000
H     0.293000000    -5.650000000    -2.234000000
C     0.005000000    -3.635000000    -2.776000000
C    -0.943000000    -2.921000000    -3.502000000
H    -2.007000000    -3.142000000    -3.465000000
C     1.326000000    -3.174000000    -2.691000000
C     1.642000000    -1.968000000    -3.317000000
H     2.704000000    -1.745000000    -3.259000000
C     0.692000000    -1.272000000    -4.017000000
O     1.019000000    -0.108000000    -4.599000000
C     0.576000000     1.127000000    -3.974000000
C     1.796000000     2.062000000    -4.012000000
C     3.063000000     1.516000000    -3.966000000
H     3.260000000     0.447000000    -3.955000000
C     1.572000000     3.436000000    -3.952000000
H     0.572000000     3.862000000    -3.944000000
O    -0.475000000     1.645000000    -4.751000000
H     0.253000000     0.956000000    -2.937000000
C    -0.545000000    -1.829000000    -4.217000000
C    -1.490000000    -1.205000000    -5.220000000
H    -2.243000000    -1.814000000    -5.726000000
H    -0.912000000    -0.690000000    -5.990000000
C    -2.237000000    -0.057000000    -4.422000000
C    -1.667000000     1.290000000    -4.366000000
C    -2.386000000     2.254000000    -3.612000000
H    -1.965000000     3.254000000    -3.544000000
C    -3.492000000     1.900000000    -2.883000000
O    -3.919000000     2.889000000    -1.902000000
C    -3.514000000     2.553000000    -0.587000000
H    -2.717000000     1.803000000    -0.696000000
C    -2.923000000     3.742000000     0.122000000
C    -2.918000000     3.733000000     1.515000000
H    -3.330000000     2.883000000     2.052000000
C    -2.194000000     4.749000000    -0.549000000
H    -2.252000000     4.699000000    -1.634000000
C    -1.586000000     5.770000000     0.165000000
O    -1.102000000     6.874000000    -0.516000000
C    -1.680000000     5.775000000     1.563000000
H    -1.056000000     6.449000000     2.145000000
C    -2.315000000     4.698000000     2.273000000
O    -2.264000000     4.805000000     3.621000000
C    -2.791000000     3.845000000     4.409000000
C    -1.912000000     3.232000000     5.313000000
H    -0.842000000     3.278000000     5.130000000
C    -4.180000000     3.651000000     4.516000000
H    -4.897000000     4.181000000     3.895000000
C    -4.712000000     2.709000000     5.446000000
H    -5.771000000     2.621000000     5.674000000
C    -3.803000000     1.919000000     6.156000000
H    -4.072000000     1.106000000     6.826000000
C    -2.405000000     2.156000000     6.077000000
O    -1.505000000     1.269000000     6.705000000
C    -1.032000000     0.160000000     6.046000000
C     0.225000000    -0.346000000     6.451000000
H     0.791000000     0.000000000     7.313000000
C     0.627000000    -1.529000000     5.826000000
O     1.776000000    -2.128000000     6.376000000
C     2.481000000    -3.191000000     5.812000000
C     3.470000000    -2.953000000     4.900000000
H     3.603000000    -1.969000000     4.457000000
C     2.361000000    -4.460000000     6.309000000
H     1.641000000    -4.654000000     7.100000000
C     3.018000000    -5.529000000     5.753000000
H     2.790000000    -6.550000000     6.049000000
C     3.939000000    -5.328000000     4.721000000
H     4.409000000    -6.179000000     4.234000000
C     4.214000000    -4.015000000     4.354000000
O     5.097000000    -3.840000000     3.332000000
C     4.852000000    -3.456000000     2.084000000
C     5.609000000    -2.448000000     1.510000000
H     6.438000000    -2.165000000     2.154000000
C     5.220000000    -1.791000000     0.372000000
O     6.057000000    -0.764000000    -0.082000000
C     6.213000000    -0.606000000    -1.423000000
C     5.733000000     0.606000000    -1.975000000
H     5.332000000     1.380000000    -1.326000000
C     6.776000000    -1.555000000    -2.207000000
H     7.037000000    -2.545000000    -1.842000000
C     6.985000000    -1.309000000    -3.596000000
H     7.460000000    -2.036000000    -4.250000000
C     6.425000000    -0.169000000    -4.196000000
H     6.478000000     0.054000000    -5.258000000
C     5.862000000     0.777000000    -3.328000000
O     5.370000000     1.911000000    -3.974000000
C     4.105000000     2.382000000    -3.903000000
C     3.942000000     3.752000000    -3.846000000
H     4.779000000     4.420000000    -3.657000000
C     2.685000000     4.281000000    -3.845000000
O     2.507000000     5.652000000    -3.629000000
C     1.301000000     6.233000000    -3.283000000
C     0.635000000     6.832000000    -4.359000000
H     1.051000000     6.700000000    -5.354000000
C    -0.574000000     7.445000000    -4.158000000
H    -1.090000000     7.916000000    -4.991000000
C    -1.189000000     7.420000000    -2.847000000
H    -2.133000000     7.920000000    -2.647000000
C    -0.508000000     6.833000000    -1.767000000
C     0.689000000     6.254000000    -2.021000000
H     1.184000000     5.716000000    -1.217000000
C     2.384000000     2.188000000    -0.119000000
H     3.327000000     2.333000000    -0.640000000
C     1.539000000     1.146000000    -0.465000000
H     1.810000000     0.447000000    -1.252000000
C     0.321000000     0.986000000     0.212000000
C    -0.522000000    -0.190000000    -0.190000000
H    -1.384000000    -0.263000000     0.476000000
H    -0.899000000     0.003000000    -1.197000000
H     0.012000000    -1.130000000    -0.039000000
C    -0.094000000     1.918000000     1.207000000
H    -1.076000000     1.822000000     1.663000000
C     0.720000000     2.998000000     1.452000000
H     0.469000000     3.739000000     2.207000000
C     1.961000000     3.144000000     0.835000000
C     2.813000000     4.358000000     1.037000000
O     2.532000000     5.278000000     1.742000000
O     3.866000000     4.401000000     0.397000000
O     5.259000000     9.532000000     1.540000000
H     4.988000000    10.334000000     1.094000000
H     4.783000000     8.834000000     1.089000000
O     4.875000000     5.327000000     5.993000000
H     4.688000000     5.598000000     5.094000000
H     4.174000000     5.722000000     6.512000000
O     4.416000000     6.149000000     3.479000000
H     3.676000000     5.945000000     2.906000000
H     5.188000000     6.011000000     2.931000000
O     8.397000000     3.436000000     0.207000000
H     8.483000000     2.697000000     0.809000000
H     7.846000000     4.064000000     0.675000000
O     2.843000000     2.108000000     5.603000000
H     2.518000000     1.314000000     5.180000000
H     2.996000000     1.850000000     6.512000000
O     4.602000000     1.911000000     3.555000000
H     4.255000000     2.449000000     4.267000000
H     4.805000000     2.537000000     2.860000000
O     6.690000000     0.183000000     3.961000000
H     6.644000000    -0.205000000     4.835000000
H     5.859000000     0.647000000     3.860000000
O     2.542000000    10.246000000    -0.653000000
H     1.599000000    10.119000000    -0.757000000
H     2.847000000     9.443000000    -0.231000000
O     1.203000000     5.308000000     4.129000000
H     1.861000000     5.190000000     3.444000000
H     0.500000000     5.799000000     3.704000000
O     6.114000000     4.232000000    -1.259000000
H     5.320000000     4.300000000    -0.729000000
H     6.744000000     3.786000000    -0.692000000
O    -0.634000000     7.698000000     4.530000000
H    -0.105000000     7.985000000     3.786000000
H    -0.116000000     7.937000000     5.299000000
O     1.940000000     0.458000000     3.172000000
H     2.796000000     0.878000000     3.095000000
H     1.328000000     1.087000000     2.789000000
O     7.844000000     3.935000000    -3.365000000
H     7.320000000     3.898000000    -2.565000000
H     7.199000000     3.961000000    -4.072000000
O     5.187000000     6.747000000    -1.932000000
H     6.075000000     6.902000000    -2.254000000
H     5.192000000     5.834000000    -1.645000000
O     3.696000000     7.649000000     0.299000000
H     4.085000000     7.413000000    -0.543000000
H     3.284000000     6.842000000     0.607000000
O     3.084000000     8.629000000     5.017000000
H     3.139000000     7.946000000     4.349000000
H     3.793000000     9.235000000     4.799000000
O     0.955000000     4.055000000     6.567000000
H     1.339000000     3.180000000     6.510000000
H     1.119000000     4.445000000     5.708000000
O     0.809000000     8.510000000     2.167000000
H     0.439000000     8.551000000     1.285000000
H     1.756000000     8.524000000     2.031000000
O     6.245000000     5.461000000     1.400000000
H     6.305000000     6.403000000     1.246000000
H     5.518000000     5.173000000     0.849000000
