218
-1464.48602
C     1.459000000    -1.229000000     4.391000000
H     1.894000000    -1.941000000     3.694000000
C     0.107000000    -1.024000000     4.548000000
C    -0.356000000    -0.047000000     5.414000000
H    -1.410000000     0.184000000     5.539000000
C    -0.792000000    -1.801000000     3.648000000
O    -0.479000000    -3.182000000     3.627000000
H    -0.666000000    -1.459000000     2.610000000
O    -2.173000000    -1.682000000     4.037000000
C    -3.151000000    -1.356000000     3.131000000
C    -3.630000000    -0.016000000     2.954000000
H    -3.342000000     0.705000000     3.715000000
C    -4.421000000     0.245000000     1.871000000
O    -4.679000000     1.513000000     1.625000000
C    -4.826000000    -0.745000000     0.945000000
C    -5.602000000    -0.369000000    -0.280000000
H    -6.219000000    -1.201000000    -0.624000000
C    -4.707000000     0.073000000    -1.420000000
C    -4.333000000    -0.913000000    -2.344000000
H    -4.770000000    -1.908000000    -2.345000000
H    -6.217000000     0.515000000    -0.100000000
C    -4.376000000    -2.073000000     1.093000000
H    -4.719000000    -2.890000000     0.464000000
C    -3.554000000    -2.356000000     2.217000000
C    -3.112000000    -3.816000000     2.432000000
H    -3.835000000    -4.483000000     1.957000000
H    -2.981000000    -4.093000000     3.481000000
C    -1.720000000    -4.117000000     1.685000000
C    -1.694000000    -4.724000000     0.399000000
H    -2.609000000    -5.002000000    -0.118000000
C    -0.544000000    -3.772000000     2.377000000
C     0.662000000    -4.001000000     1.715000000
H     1.552000000    -3.773000000     2.296000000
C     0.699000000    -4.471000000     0.415000000
O     1.888000000    -4.462000000    -0.205000000
C     2.179000000    -3.397000000    -1.135000000
C     3.597000000    -2.941000000    -0.950000000
C     4.304000000    -2.246000000    -1.963000000
H     3.837000000    -2.134000000    -2.939000000
C     4.255000000    -3.176000000     0.246000000
H     3.823000000    -3.741000000     1.068000000
O     1.864000000    -3.712000000    -2.496000000
H     1.533000000    -2.532000000    -0.927000000
C    -0.479000000    -4.886000000    -0.264000000
C    -0.583000000    -5.218000000    -1.748000000
H    -1.516000000    -5.749000000    -1.947000000
H     0.172000000    -5.944000000    -2.058000000
C    -0.527000000    -3.959000000    -2.634000000
C    -1.733000000    -3.349000000    -3.009000000
H    -2.614000000    -3.899000000    -2.690000000
C     0.650000000    -3.331000000    -3.056000000
C     0.630000000    -2.271000000    -3.866000000
H     1.551000000    -1.744000000    -4.099000000
C    -0.557000000    -1.662000000    -4.184000000
O    -0.444000000    -0.567000000    -4.944000000
C    -0.633000000     0.672000000    -4.262000000
C     0.339000000     1.743000000    -4.724000000
C     1.621000000     1.306000000    -5.288000000
H     1.835000000     0.245000000    -5.380000000
C     0.204000000     3.105000000    -4.424000000
H    -0.735000000     3.522000000    -4.070000000
O    -1.961000000     1.134000000    -4.352000000
H    -0.423000000     0.613000000    -3.184000000
C    -1.726000000    -2.227000000    -3.886000000
C    -3.103000000    -1.683000000    -4.315000000
H    -3.897000000    -2.426000000    -4.209000000
H    -3.028000000    -1.316000000    -5.340000000
C    -3.489000000    -0.544000000    -3.348000000
C    -2.933000000     0.796000000    -3.434000000
C    -3.252000000     1.693000000    -2.422000000
H    -2.806000000     2.683000000    -2.382000000
C    -4.193000000     1.365000000    -1.473000000
O    -4.439000000     2.345000000    -0.570000000
C    -3.765000000     2.129000000     0.654000000
H    -2.955000000     1.436000000     0.382000000
C    -3.080000000     3.408000000     1.177000000
C    -3.006000000     3.629000000     2.559000000
H    -3.487000000     2.905000000     3.210000000
C    -2.589000000     4.367000000     0.312000000
H    -2.537000000     4.215000000    -0.763000000
C    -1.795000000     5.432000000     0.799000000
O    -1.099000000     6.322000000    -0.016000000
C    -1.785000000     5.638000000     2.172000000
H    -1.323000000     6.426000000     2.762000000
C    -2.425000000     4.770000000     3.034000000
O    -2.343000000     5.040000000     4.352000000
C    -2.272000000     4.035000000     5.252000000
C    -1.086000000     3.417000000     5.540000000
H    -0.189000000     3.711000000     5.002000000
C    -3.436000000     3.616000000     5.877000000
H    -4.386000000     4.117000000     5.711000000
C    -3.358000000     2.732000000     6.947000000
H    -4.291000000     2.507000000     7.458000000
C    -2.131000000     2.205000000     7.302000000
H    -2.009000000     1.422000000     8.046000000
C    -1.061000000     2.442000000     6.497000000
O     0.086000000     1.883000000     6.755000000
C     0.521000000     0.836000000     6.025000000
C     1.850000000     0.598000000     5.884000000
H     2.500000000     1.244000000     6.467000000
C     2.337000000    -0.431000000     5.073000000
O     3.708000000    -0.609000000     5.006000000
C     4.374000000    -1.733000000     4.562000000
C     4.874000000    -1.787000000     3.279000000
H     4.665000000    -0.920000000     2.657000000
C     4.525000000    -2.796000000     5.431000000
H     4.247000000    -2.678000000     6.475000000
C     5.223000000    -3.962000000     5.088000000
H     5.457000000    -4.781000000     5.764000000
C     5.658000000    -4.072000000     3.745000000
H     6.300000000    -4.890000000     3.428000000
C     5.496000000    -2.979000000     2.855000000
O     6.210000000    -3.020000000     1.643000000
C     5.563000000    -2.750000000     0.445000000
C     6.270000000    -2.220000000    -0.640000000
H     7.342000000    -2.057000000    -0.561000000
C     5.589000000    -1.811000000    -1.775000000
O     6.194000000    -1.156000000    -2.774000000
C     5.580000000    -0.851000000    -3.999000000
C     5.012000000     0.387000000    -4.205000000
H     5.050000000     1.185000000    -3.468000000
C     5.646000000    -1.801000000    -5.076000000
H     6.183000000    -2.735000000    -4.932000000
C     5.059000000    -1.555000000    -6.354000000
H     5.035000000    -2.291000000    -7.154000000
C     4.492000000    -0.267000000    -6.473000000
H     4.102000000     0.222000000    -7.362000000
C     4.470000000     0.662000000    -5.481000000
O     3.943000000     1.923000000    -5.733000000
C     2.641000000     2.239000000    -5.436000000
C     2.454000000     3.564000000    -5.100000000
H     3.311000000     4.226000000    -5.193000000
C     1.254000000     3.985000000    -4.589000000
O     1.213000000     5.298000000    -4.126000000
C     0.095000000     5.771000000    -3.470000000
C    -1.143000000     6.146000000    -4.128000000
H    -1.193000000     6.219000000    -5.211000000
C    -2.220000000     6.686000000    -3.399000000
H    -3.099000000     7.087000000    -3.897000000
C    -2.195000000     6.615000000    -2.037000000
H    -3.000000000     7.053000000    -1.452000000
C    -1.051000000     6.195000000    -1.383000000
C     0.103000000     5.807000000    -2.080000000
H     1.001000000     5.506000000    -1.547000000
C     1.277000000     2.546000000    -0.252000000
H     1.900000000     3.081000000    -0.965000000
C     0.750000000     1.314000000    -0.650000000
H     1.176000000     0.841000000    -1.531000000
C    -0.037000000     0.584000000     0.303000000
C    -0.511000000    -0.866000000     0.022000000
H    -1.410000000    -1.123000000     0.585000000
H    -0.762000000    -0.994000000    -1.034000000
H     0.353000000    -1.460000000     0.327000000
C    -0.355000000     1.148000000     1.553000000
H    -0.840000000     0.581000000     2.344000000
C     0.171000000     2.362000000     1.890000000
H    -0.001000000     2.775000000     2.881000000
C     1.008000000     3.111000000     0.973000000
C     1.658000000     4.404000000     1.351000000
O     1.650000000     4.838000000     2.454000000
O     2.499000000     4.902000000     0.567000000
O     3.391000000     1.766000000     2.573000000
H     3.791000000     2.527000000     2.995000000
H     2.653000000     1.538000000     3.138000000
O     2.067000000    10.827000000    -0.410000000
H     1.157000000    11.096000000    -0.540000000
H     2.027000000     9.873000000    -0.342000000
O     3.169000000     8.630000000     3.773000000
H     3.704000000     7.941000000     3.379000000
H     2.365000000     8.636000000     3.254000000
O     6.285000000     3.481000000     3.753000000
H     6.617000000     4.368000000     3.892000000
H     6.704000000     3.193000000     2.942000000
O     4.210000000     4.112000000    -1.167000000
H     4.606000000     3.356000000    -0.732000000
H     3.557000000     4.431000000    -0.545000000
O     7.906000000     2.879000000     1.608000000
H     8.013000000     1.984000000     1.287000000
H     7.804000000     3.407000000     0.817000000
O    -0.651000000     9.318000000     2.722000000
H    -0.149000000     8.693000000     2.198000000
H    -0.661000000     8.939000000     3.601000000
O     5.882000000     7.388000000     1.215000000
H     6.469000000     6.743000000     0.819000000
H     5.363000000     6.885000000     1.843000000
O     5.003000000     9.331000000    -2.068000000
H     5.057000000     8.514000000    -2.563000000
H     4.334000000     9.165000000    -1.403000000
O     3.062000000     7.468000000    -0.019000000
H     3.965000000     7.406000000     0.290000000
H     2.718000000     6.578000000     0.066000000
O     3.662000000     0.658000000     0.043000000
H     2.751000000     0.796000000    -0.216000000
H     3.701000000     0.959000000     0.950000000
O     3.834000000     3.095000000     5.303000000
H     4.662000000     3.297000000     4.867000000
H     4.090000000     2.793000000     6.175000000
O     5.121000000     5.092000000    -3.464000000
H     4.667000000     5.902000000    -3.695000000
H     4.642000000     4.757000000    -2.706000000
O     4.371000000     6.053000000     2.983000000
H     4.801000000     5.563000000     3.683000000
H     3.560000000     5.572000000     2.817000000
O     2.242000000     6.654000000     7.254000000
H     2.189000000     6.360000000     6.345000000
H     3.022000000     7.207000000     7.282000000
O     0.361000000     7.654000000     4.699000000
H     0.476000000     6.712000000     4.823000000
H     1.251000000     8.008000000     4.716000000
O     1.025000000     7.519000000     1.631000000
H     1.676000000     7.579000000     0.931000000
H     0.827000000     6.585000000     1.694000000
O     2.352000000     3.657000000     8.234000000
H     2.042000000     4.228000000     7.531000000
H     2.814000000     4.244000000     8.833000000
O     1.977000000     5.242000000     5.072000000
H     2.349000000     4.377000000     5.244000000
H     1.862000000     5.270000000     4.122000000
