218
-1486.43814
C     1.394000000    -1.703000000     4.148000000
H     2.078000000    -2.146000000     3.429000000
C     0.000000000    -1.887000000     3.935000000
C    -0.929000000    -1.284000000     4.814000000
H    -1.994000000    -1.440000000     4.666000000
C    -0.480000000    -2.835000000     2.831000000
O     0.389000000    -4.014000000     2.643000000
H    -0.507000000    -2.265000000     1.890000000
O    -1.743000000    -3.406000000     3.102000000
C    -2.620000000    -3.121000000     2.105000000
C    -3.484000000    -2.008000000     2.121000000
H    -3.467000000    -1.317000000     2.960000000
C    -4.232000000    -1.700000000     0.967000000
O    -4.877000000    -0.485000000     0.888000000
C    -4.219000000    -2.506000000    -0.146000000
C    -4.932000000    -2.113000000    -1.463000000
H    -5.147000000    -3.039000000    -2.000000000
C    -4.075000000    -1.171000000    -2.278000000
C    -3.433000000    -1.633000000    -3.422000000
H    -3.568000000    -2.687000000    -3.650000000
H    -5.920000000    -1.725000000    -1.207000000
C    -3.347000000    -3.591000000    -0.219000000
H    -3.229000000    -4.168000000    -1.133000000
C    -2.597000000    -3.936000000     0.928000000
C    -1.681000000    -5.140000000     0.911000000
H    -2.152000000    -5.843000000     0.221000000
H    -1.703000000    -5.714000000     1.840000000
C    -0.233000000    -4.876000000     0.462000000
C     0.097000000    -5.001000000    -0.876000000
H    -0.630000000    -5.321000000    -1.619000000
C     0.671000000    -4.358000000     1.383000000
C     1.946000000    -3.988000000     0.964000000
H     2.670000000    -3.595000000     1.674000000
C     2.285000000    -4.127000000    -0.396000000
O     3.539000000    -3.610000000    -0.728000000
C     3.549000000    -2.290000000    -1.330000000
C     4.735000000    -1.428000000    -0.800000000
C     5.190000000    -0.269000000    -1.490000000
H     4.911000000    -0.114000000    -2.529000000
C     5.222000000    -1.728000000     0.490000000
H     4.831000000    -2.569000000     1.057000000
O     3.550000000    -2.317000000    -2.788000000
H     2.559000000    -1.924000000    -1.022000000
C     1.353000000    -4.576000000    -1.361000000
C     1.675000000    -4.534000000    -2.849000000
H     1.237000000    -5.384000000    -3.376000000
H     2.756000000    -4.674000000    -2.917000000
C     1.341000000    -3.176000000    -3.472000000
C     0.082000000    -2.886000000    -4.089000000
H    -0.737000000    -3.595000000    -3.995000000
C     2.311000000    -2.169000000    -3.527000000
C     2.003000000    -0.903000000    -4.000000000
H     2.695000000    -0.074000000    -4.124000000
C     0.776000000    -0.692000000    -4.692000000
O     0.451000000     0.570000000    -5.061000000
C    -0.204000000     1.339000000    -4.045000000
C     0.288000000     2.820000000    -4.027000000
C     1.673000000     3.049000000    -4.353000000
H     2.204000000     2.232000000    -4.835000000
C    -0.423000000     3.858000000    -3.375000000
H    -1.404000000     3.691000000    -2.936000000
O    -1.583000000     1.363000000    -4.423000000
H    -0.010000000     0.903000000    -3.055000000
C    -0.194000000    -1.652000000    -4.669000000
C    -1.630000000    -1.442000000    -5.220000000
H    -2.055000000    -2.331000000    -5.690000000
H    -1.623000000    -0.729000000    -6.047000000
C    -2.519000000    -0.852000000    -4.118000000
C    -2.405000000     0.500000000    -3.793000000
C    -3.163000000     1.034000000    -2.767000000
H    -3.144000000     2.098000000    -2.541000000
C    -3.993000000     0.181000000    -1.976000000
O    -4.819000000     0.703000000    -1.088000000
C    -4.238000000     0.650000000     0.251000000
H    -3.159000000     0.461000000     0.353000000
C    -4.493000000     1.881000000     1.114000000
C    -4.760000000     1.800000000     2.483000000
H    -4.927000000     0.794000000     2.859000000
C    -4.269000000     3.139000000     0.597000000
H    -4.109000000     3.241000000    -0.474000000
C    -4.087000000     4.258000000     1.389000000
O    -3.876000000     5.520000000     0.958000000
C    -4.431000000     4.141000000     2.754000000
H    -4.333000000     4.978000000     3.440000000
C    -4.731000000     2.936000000     3.288000000
O    -4.828000000     2.867000000     4.641000000
C    -4.485000000     1.778000000     5.416000000
C    -3.156000000     1.471000000     5.566000000
H    -2.390000000     2.053000000     5.059000000
C    -5.443000000     1.024000000     6.141000000
H    -6.495000000     1.164000000     5.905000000
C    -5.020000000     0.163000000     7.177000000
H    -5.676000000    -0.434000000     7.805000000
C    -3.645000000    -0.088000000     7.335000000
H    -3.172000000    -0.813000000     7.992000000
C    -2.724000000     0.473000000     6.425000000
O    -1.424000000     0.290000000     6.623000000
C    -0.510000000    -0.472000000     5.882000000
C     0.837000000    -0.335000000     6.104000000
H     1.298000000     0.213000000     6.922000000
C     1.773000000    -0.923000000     5.196000000
O     3.104000000    -0.751000000     5.462000000
C     4.105000000    -1.453000000     4.873000000
C     4.799000000    -0.903000000     3.802000000
H     4.548000000     0.125000000     3.554000000
C     4.453000000    -2.633000000     5.472000000
H     3.783000000    -2.963000000     6.261000000
C     5.555000000    -3.358000000     5.005000000
H     5.769000000    -4.328000000     5.447000000
C     6.324000000    -2.807000000     3.959000000
H     7.082000000    -3.416000000     3.473000000
C     5.964000000    -1.600000000     3.347000000
O     6.737000000    -1.156000000     2.318000000
C     6.204000000    -0.875000000     0.995000000
C     6.629000000     0.239000000     0.334000000
H     7.314000000     0.920000000     0.832000000
C     6.145000000     0.560000000    -0.936000000
O     6.546000000     1.688000000    -1.631000000
C     6.040000000     2.162000000    -2.807000000
C     4.952000000     3.101000000    -2.819000000
H     4.440000000     3.496000000    -1.945000000
C     6.479000000     1.558000000    -3.961000000
H     7.255000000     0.799000000    -3.912000000
C     6.000000000     2.002000000    -5.209000000
H     6.440000000     1.476000000    -6.052000000
C     4.995000000     2.972000000    -5.249000000
H     4.560000000     3.271000000    -6.199000000
C     4.539000000     3.563000000    -4.092000000
O     3.592000000     4.574000000    -4.255000000
C     2.256000000     4.310000000    -4.007000000
C     1.486000000     5.279000000    -3.342000000
H     1.867000000     6.248000000    -3.031000000
C     0.195000000     5.048000000    -3.044000000
O    -0.447000000     6.029000000    -2.345000000
C    -1.772000000     5.963000000    -2.041000000
C    -2.697000000     6.132000000    -3.008000000
H    -2.342000000     6.149000000    -4.036000000
C    -4.095000000     6.200000000    -2.638000000
H    -4.864000000     6.250000000    -3.404000000
C    -4.434000000     6.033000000    -1.268000000
H    -5.469000000     6.018000000    -0.937000000
C    -3.420000000     5.889000000    -0.339000000
C    -2.110000000     5.851000000    -0.724000000
H    -1.339000000     5.786000000     0.038000000
C     1.997000000     2.036000000     0.689000000
H     2.956000000     2.482000000     0.437000000
C     1.626000000     0.922000000    -0.036000000
H     2.279000000     0.521000000    -0.807000000
C     0.403000000     0.342000000     0.276000000
C    -0.122000000    -0.784000000    -0.609000000
H    -1.212000000    -0.765000000    -0.540000000
H     0.225000000    -0.790000000    -1.644000000
H     0.313000000    -1.692000000    -0.186000000
C    -0.374000000     0.806000000     1.328000000
H    -1.318000000     0.322000000     1.562000000
C     0.118000000     1.840000000     2.103000000
H    -0.414000000     2.051000000     3.028000000
C     1.304000000     2.492000000     1.784000000
C     1.818000000     3.699000000     2.523000000
O     1.197000000     4.124000000     3.492000000
O     2.925000000     4.121000000     2.274000000
O     2.542000000     5.959000000     4.729000000
H     2.061000000     5.236000000     4.327000000
H     1.995000000     6.729000000     4.568000000
O     4.080000000     5.286000000     6.944000000
H     3.496000000     5.648000000     7.611000000
H     3.619000000     5.430000000     6.118000000
O     2.705000000     6.580000000     0.697000000
H     2.092000000     7.195000000     1.101000000
H     2.698000000     5.819000000     1.278000000
O    -3.295000000     8.049000000     2.025000000
H    -4.016000000     7.888000000     1.417000000
H    -2.862000000     7.200000000     2.114000000
O     7.106000000     2.969000000     2.479000000
H     7.403000000     2.062000000     2.408000000
H     7.843000000     3.488000000     2.155000000
O     5.114000000     7.994000000    -0.395000000
H     4.314000000     7.574000000    -0.711000000
H     5.057000000     7.930000000     0.559000000
O     5.141000000     4.346000000     0.670000000
H     4.281000000     4.315000000     1.090000000
H     5.744000000     4.014000000     1.335000000
O     7.671000000     5.437000000     4.240000000
H     7.597000000     4.506000000     4.031000000
H     6.812000000     5.800000000     4.024000000
O     5.509000000     1.272000000     5.980000000
H     4.720000000     0.761000000     6.161000000
H     5.236000000     1.905000000     5.316000000
O     6.155000000     5.772000000    -1.879000000
H     5.576000000     5.313000000    -1.270000000
H     6.127000000     6.685000000    -1.593000000
O     5.085000000     5.988000000     3.050000000
H     4.411000000     6.141000000     3.712000000
H     4.595000000     5.761000000     2.259000000
O     3.388000000     2.626000000     7.652000000
H     3.783000000     3.458000000     7.390000000
H     2.761000000     2.429000000     6.956000000
O     1.395000000     8.533000000     4.609000000
H     2.180000000     8.882000000     5.031000000
H     0.683000000     8.748000000     5.212000000
O     0.990000000     8.350000000    -0.844000000
H     1.316000000     7.453000000    -0.916000000
H     0.120000000     8.258000000    -0.454000000
O     4.770000000     2.973000000     3.932000000
H     5.583000000     2.995000000     3.429000000
H     4.112000000     3.340000000     3.341000000
O     1.657000000     2.465000000     5.484000000
H     1.248000000     3.157000000     4.964000000
H     2.274000000     2.047000000     4.883000000
O    -1.275000000     6.093000000     3.084000000
H    -0.651000000     5.386000000     3.246000000
H    -0.788000000     6.725000000     2.554000000
O     0.425000000     7.907000000     2.067000000
H     0.955000000     7.943000000     2.864000000
H     0.173000000     8.816000000     1.906000000
O    -2.567000000     7.374000000     5.229000000
H    -1.791000000     7.628000000     5.728000000
H    -2.235000000     6.787000000     4.550000000
