218
-1466.71659
C     1.409000000    -1.913000000     4.320000000
H     1.993000000    -2.561000000     3.671000000
C    -0.010000000    -1.664000000     4.215000000
C    -0.495000000    -0.580000000     4.986000000
H    -1.545000000    -0.331000000     4.861000000
C    -0.781000000    -2.368000000     3.095000000
O    -0.193000000    -3.633000000     2.861000000
H    -0.714000000    -1.682000000     2.238000000
O    -2.168000000    -2.537000000     3.527000000
C    -3.141000000    -2.394000000     2.564000000
C    -3.939000000    -1.251000000     2.491000000
H    -3.873000000    -0.462000000     3.236000000
C    -4.655000000    -0.860000000     1.386000000
O    -5.125000000     0.442000000     1.222000000
C    -4.714000000    -1.802000000     0.323000000
C    -5.400000000    -1.352000000    -0.997000000
H    -5.787000000    -2.212000000    -1.548000000
C    -4.404000000    -0.604000000    -1.879000000
C    -3.725000000    -1.400000000    -2.883000000
H    -3.795000000    -2.484000000    -2.849000000
H    -6.236000000    -0.730000000    -0.669000000
C    -4.107000000    -3.079000000     0.511000000
H    -4.107000000    -3.799000000    -0.304000000
C    -3.290000000    -3.348000000     1.594000000
C    -2.439000000    -4.643000000     1.523000000
H    -3.076000000    -5.437000000     1.129000000
H    -2.262000000    -5.087000000     2.505000000
C    -1.078000000    -4.569000000     0.817000000
C    -0.881000000    -5.023000000    -0.449000000
H    -1.804000000    -5.310000000    -0.945000000
C     0.004000000    -4.106000000     1.560000000
C     1.305000000    -4.134000000     1.095000000
H     2.178000000    -3.832000000     1.668000000
C     1.461000000    -4.471000000    -0.264000000
O     2.734000000    -4.323000000    -0.823000000
C     2.943000000    -2.992000000    -1.465000000
C     4.293000000    -2.368000000    -1.128000000
C     4.814000000    -1.257000000    -1.804000000
H     4.263000000    -0.782000000    -2.612000000
C     4.837000000    -2.656000000     0.120000000
H     4.468000000    -3.518000000     0.671000000
O     2.752000000    -3.146000000    -2.846000000
H     2.297000000    -2.214000000    -1.031000000
C     0.345000000    -4.807000000    -1.017000000
C     0.536000000    -4.998000000    -2.546000000
H    -0.121000000    -5.749000000    -2.991000000
H     1.547000000    -5.376000000    -2.708000000
C     0.442000000    -3.633000000    -3.190000000
C    -0.792000000    -3.242000000    -3.747000000
H    -1.640000000    -3.921000000    -3.763000000
C     1.541000000    -2.793000000    -3.350000000
C     1.385000000    -1.575000000    -3.984000000
H     2.268000000    -0.951000000    -4.095000000
C     0.233000000    -1.253000000    -4.592000000
O     0.123000000     0.046000000    -5.091000000
C    -0.473000000     1.071000000    -4.251000000
C     0.276000000     2.397000000    -4.249000000
C     1.589000000     2.388000000    -4.720000000
H     2.160000000     1.491000000    -4.945000000
C    -0.292000000     3.586000000    -3.784000000
H    -1.322000000     3.596000000    -3.439000000
O    -1.850000000     1.214000000    -4.510000000
H    -0.406000000     0.745000000    -3.203000000
C    -0.885000000    -2.032000000    -4.485000000
C    -2.244000000    -1.471000000    -4.977000000
H    -2.933000000    -2.285000000    -5.209000000
H    -2.097000000    -0.826000000    -5.846000000
C    -2.933000000    -0.775000000    -3.834000000
C    -2.786000000     0.642000000    -3.721000000
C    -3.360000000     1.371000000    -2.732000000
H    -3.182000000     2.442000000    -2.696000000
C    -4.188000000     0.775000000    -1.815000000
O    -4.729000000     1.583000000    -0.796000000
C    -4.238000000     1.338000000     0.509000000
H    -3.221000000     0.935000000     0.392000000
C    -4.002000000     2.632000000     1.320000000
C    -4.160000000     2.736000000     2.738000000
H    -4.520000000     1.934000000     3.378000000
C    -3.396000000     3.681000000     0.750000000
H    -3.113000000     3.608000000    -0.297000000
C    -3.045000000     4.868000000     1.400000000
O    -2.292000000     5.872000000     0.787000000
C    -3.335000000     5.022000000     2.709000000
H    -3.047000000     5.902000000     3.278000000
C    -3.862000000     3.911000000     3.349000000
O    -3.746000000     4.074000000     4.683000000
C    -3.300000000     3.194000000     5.625000000
C    -1.978000000     2.680000000     5.537000000
H    -1.439000000     3.010000000     4.653000000
C    -4.028000000     2.833000000     6.710000000
H    -5.070000000     3.140000000     6.724000000
C    -3.501000000     2.018000000     7.701000000
H    -4.105000000     1.644000000     8.524000000
C    -2.163000000     1.512000000     7.678000000
H    -1.722000000     0.957000000     8.502000000
C    -1.474000000     1.845000000     6.549000000
O    -0.140000000     1.338000000     6.381000000
C     0.259000000     0.162000000     5.828000000
C     1.601000000    -0.161000000     5.971000000
H     2.274000000     0.475000000     6.539000000
C     2.147000000    -1.216000000     5.248000000
O     3.500000000    -1.483000000     5.426000000
C     4.296000000    -2.295000000     4.759000000
C     4.989000000    -1.820000000     3.623000000
H     4.898000000    -0.821000000     3.204000000
C     4.507000000    -3.602000000     5.175000000
H     3.987000000    -3.905000000     6.080000000
C     5.446000000    -4.452000000     4.573000000
H     5.722000000    -5.417000000     4.991000000
C     6.191000000    -3.890000000     3.536000000
H     7.032000000    -4.503000000     3.221000000
C     5.843000000    -2.659000000     2.931000000
O     6.527000000    -2.203000000     1.817000000
C     5.955000000    -1.999000000     0.584000000
C     6.557000000    -0.967000000    -0.178000000
H     7.357000000    -0.430000000     0.324000000
C     5.949000000    -0.560000000    -1.382000000
O     6.176000000     0.711000000    -1.953000000
C     5.696000000     1.018000000    -3.219000000
C     4.807000000     2.057000000    -3.413000000
H     4.345000000     2.547000000    -2.559000000
C     6.254000000     0.322000000    -4.292000000
H     6.785000000    -0.612000000    -4.125000000
C     5.946000000     0.720000000    -5.601000000
H     6.341000000     0.132000000    -6.426000000
C     5.099000000     1.795000000    -5.799000000
H     4.853000000     2.142000000    -6.800000000
C     4.522000000     2.503000000    -4.711000000
O     3.674000000     3.514000000    -5.047000000
C     2.374000000     3.527000000    -4.663000000
C     1.806000000     4.729000000    -4.225000000
H     2.474000000     5.575000000    -4.367000000
C     0.488000000     4.756000000    -3.886000000
O    -0.046000000     6.023000000    -3.578000000
C    -1.228000000     6.139000000    -2.736000000
C    -2.366000000     6.615000000    -3.338000000
H    -2.393000000     6.926000000    -4.379000000
C    -3.552000000     6.877000000    -2.536000000
H    -4.466000000     7.323000000    -2.918000000
C    -3.546000000     6.598000000    -1.168000000
H    -4.470000000     6.734000000    -0.612000000
C    -2.342000000     6.116000000    -0.577000000
C    -1.232000000     5.818000000    -1.381000000
H    -0.386000000     5.271000000    -0.972000000
C     1.309000000     2.399000000    -0.369000000
H     2.033000000     2.853000000    -1.041000000
C     0.707000000     1.198000000    -0.806000000
H     1.071000000     0.781000000    -1.741000000
C    -0.231000000     0.559000000    -0.050000000
C    -0.833000000    -0.755000000    -0.548000000
H    -0.441000000    -1.555000000     0.083000000
H    -1.920000000    -0.849000000    -0.497000000
H    -0.622000000    -0.891000000    -1.611000000
C    -0.550000000     0.996000000     1.255000000
H    -1.236000000     0.362000000     1.810000000
C    -0.025000000     2.252000000     1.608000000
H    -0.402000000     2.701000000     2.524000000
C     0.925000000     2.941000000     0.844000000
C     1.428000000     4.250000000     1.361000000
O     1.194000000     4.553000000     2.532000000
O     2.326000000     4.742000000     0.698000000
O     2.685000000     2.370000000     3.894000000
H     2.891000000     3.006000000     3.209000000
H     1.867000000     2.687000000     4.277000000
O     4.742000000     1.625000000     5.820000000
H     5.452000000     1.508000000     5.188000000
H     3.962000000     1.755000000     5.282000000
O     1.980000000     8.448000000    -1.915000000
H     1.053000000     8.509000000    -1.686000000
H     2.270000000     9.358000000    -1.984000000
O     5.962000000     4.349000000    -1.760000000
H     5.557000000     3.890000000    -1.024000000
H     5.337000000     5.038000000    -1.986000000
O     6.901000000     4.553000000     1.137000000
H     6.113000000     4.017000000     1.053000000
H     6.779000000     5.260000000     0.504000000
O     6.287000000     7.872000000    -1.508000000
H     6.398000000     8.617000000    -0.916000000
H     5.710000000     7.274000000    -1.034000000
O     3.796000000     6.203000000    -1.092000000
H     3.229000000     6.843000000    -1.522000000
H     3.194000000     5.543000000    -0.749000000
O     3.363000000     0.987000000     1.683000000
H     2.509000000     0.698000000     1.360000000
H     3.217000000     1.175000000     2.610000000
O     4.610000000     6.241000000     5.139000000
H     5.402000000     5.706000000     5.103000000
H     4.116000000     5.992000000     4.358000000
O     3.460000000     6.243000000     2.513000000
H     2.718000000     6.547000000     3.036000000
H     3.067000000     5.682000000     1.845000000
O     4.505000000     3.413000000     0.592000000
H     3.650000000     3.816000000     0.444000000
H     4.304000000     2.526000000     0.892000000
O     1.171000000     4.774000000     5.180000000
H     1.060000000     4.507000000     4.268000000
H     0.842000000     5.672000000     5.210000000
O    -0.314000000     9.433000000    -0.520000000
H    -1.123000000     8.979000000    -0.284000000
H    -0.265000000    10.168000000     0.090000000
O     2.819000000     4.020000000     7.684000000
H     2.774000000     3.069000000     7.781000000
H     2.535000000     4.183000000     6.784000000
O     5.862000000     7.673000000     2.380000000
H     5.092000000     7.146000000     2.594000000
H     5.544000000     8.317000000     1.748000000
O     2.359000000     9.224000000     2.660000000
H     1.419000000     9.084000000     2.547000000
H     2.483000000     9.265000000     3.608000000
O    -0.485000000     6.461000000     2.813000000
H     0.139000000     5.742000000     2.713000000
H    -1.097000000     6.350000000     2.086000000
O    -0.426000000     9.083000000     3.437000000
H    -0.780000000     9.259000000     4.309000000
H    -0.285000000     8.137000000     3.422000000
O     4.021000000     8.890000000     0.470000000
H     3.698000000     8.458000000    -0.321000000
H     3.398000000     8.636000000     1.152000000
