218
-1456.99979
C     0.886000000    -2.619000000     4.277000000
H     1.635000000    -3.072000000     3.633000000
C    -0.477000000    -2.625000000     3.966000000
C    -1.417000000    -1.984000000     4.809000000
H    -2.420000000    -1.830000000     4.421000000
C    -0.822000000    -3.206000000     2.609000000
O     0.021000000    -4.345000000     2.232000000
H    -0.793000000    -2.417000000     1.843000000
O    -2.212000000    -3.631000000     2.664000000
C    -3.067000000    -3.371000000     1.583000000
C    -3.901000000    -2.252000000     1.589000000
H    -3.973000000    -1.772000000     2.562000000
C    -4.448000000    -1.646000000     0.443000000
O    -4.950000000    -0.389000000     0.525000000
C    -4.312000000    -2.375000000    -0.769000000
C    -4.795000000    -1.755000000    -2.084000000
H    -5.041000000    -2.632000000    -2.686000000
C    -3.914000000    -0.660000000    -2.698000000
C    -3.136000000    -1.052000000    -3.756000000
H    -3.200000000    -2.077000000    -4.111000000
H    -5.799000000    -1.376000000    -1.884000000
C    -3.481000000    -3.504000000    -0.748000000
H    -3.119000000    -3.845000000    -1.714000000
C    -2.796000000    -3.914000000     0.361000000
C    -1.868000000    -5.192000000     0.199000000
H    -2.367000000    -5.775000000    -0.578000000
H    -1.803000000    -5.837000000     1.077000000
C    -0.479000000    -4.709000000    -0.118000000
C     0.019000000    -4.818000000    -1.434000000
H    -0.652000000    -5.243000000    -2.175000000
C     0.436000000    -4.378000000     0.912000000
C     1.727000000    -4.111000000     0.583000000
H     2.388000000    -3.878000000     1.414000000
C     2.148000000    -4.048000000    -0.763000000
O     3.383000000    -3.500000000    -1.032000000
C     3.512000000    -2.142000000    -1.330000000
C     4.638000000    -1.465000000    -0.633000000
C     5.309000000    -0.371000000    -1.257000000
H     5.183000000    -0.054000000    -2.290000000
C     4.919000000    -1.671000000     0.718000000
H     4.347000000    -2.446000000     1.221000000
O     3.594000000    -1.957000000    -2.790000000
H     2.658000000    -1.547000000    -0.973000000
C     1.256000000    -4.373000000    -1.790000000
C     1.553000000    -4.193000000    -3.309000000
H     0.958000000    -4.847000000    -3.950000000
H     2.551000000    -4.571000000    -3.539000000
C     1.435000000    -2.771000000    -3.802000000
C     0.266000000    -2.348000000    -4.425000000
H    -0.564000000    -3.049000000    -4.463000000
C     2.386000000    -1.756000000    -3.536000000
C     2.199000000    -0.417000000    -3.880000000
H     2.888000000     0.336000000    -3.504000000
C     1.066000000    -0.076000000    -4.616000000
O     0.757000000     1.256000000    -4.935000000
C     0.015000000     1.961000000    -3.925000000
C     0.656000000     3.273000000    -3.491000000
C     2.043000000     3.395000000    -3.364000000
H     2.658000000     2.539000000    -3.630000000
C    -0.153000000     4.350000000    -3.112000000
H    -1.220000000     4.147000000    -3.142000000
O    -1.330000000     1.974000000    -4.347000000
H     0.152000000     1.350000000    -3.021000000
C     0.036000000    -1.010000000    -4.821000000
C    -1.300000000    -0.657000000    -5.480000000
H    -1.767000000    -1.498000000    -5.997000000
H    -1.132000000     0.167000000    -6.177000000
C    -2.256000000    -0.187000000    -4.369000000
C    -2.193000000     1.097000000    -3.881000000
C    -2.948000000     1.528000000    -2.778000000
H    -2.873000000     2.531000000    -2.365000000
C    -3.836000000     0.640000000    -2.270000000
O    -4.717000000     1.062000000    -1.264000000
C    -4.220000000     0.714000000     0.080000000
H    -3.192000000     0.348000000    -0.060000000
C    -4.186000000     1.877000000     1.068000000
C    -4.264000000     1.703000000     2.471000000
H    -4.507000000     0.722000000     2.873000000
C    -4.035000000     3.216000000     0.590000000
H    -3.886000000     3.308000000    -0.483000000
C    -3.908000000     4.265000000     1.504000000
O    -3.704000000     5.598000000     1.132000000
C    -4.048000000     4.040000000     2.848000000
H    -3.876000000     4.819000000     3.586000000
C    -4.239000000     2.748000000     3.355000000
O    -4.537000000     2.555000000     4.718000000
C    -4.434000000     1.346000000     5.388000000
C    -3.203000000     0.893000000     5.816000000
H    -2.362000000     1.435000000     5.392000000
C    -5.563000000     0.682000000     5.872000000
H    -6.571000000     0.843000000     5.499000000
C    -5.454000000    -0.454000000     6.635000000
H    -6.335000000    -1.059000000     6.834000000
C    -4.161000000    -0.906000000     7.020000000
H    -3.972000000    -1.872000000     7.480000000
C    -3.013000000    -0.260000000     6.539000000
O    -1.768000000    -0.698000000     6.777000000
C    -0.961000000    -1.459000000     5.989000000
C     0.389000000    -1.564000000     6.375000000
H     0.710000000    -1.137000000     7.321000000
C     1.354000000    -2.115000000     5.486000000
O     2.662000000    -2.196000000     5.918000000
C     3.729000000    -2.585000000     5.127000000
C     4.399000000    -1.599000000     4.370000000
H     4.005000000    -0.586000000     4.388000000
C     4.206000000    -3.867000000     5.104000000
H     3.653000000    -4.591000000     5.697000000
C     5.214000000    -4.315000000     4.237000000
H     5.538000000    -5.349000000     4.147000000
C     5.808000000    -3.371000000     3.458000000
H     6.627000000    -3.673000000     2.810000000
C     5.437000000    -2.012000000     3.552000000
O     6.018000000    -1.085000000     2.764000000
C     5.829000000    -0.900000000     1.413000000
C     6.501000000     0.173000000     0.818000000
H     7.123000000     0.881000000     1.359000000
C     6.284000000     0.352000000    -0.551000000
O     7.034000000     1.405000000    -1.183000000
C     6.536000000     2.071000000    -2.283000000
C     5.593000000     2.983000000    -1.933000000
H     5.188000000     3.144000000    -0.937000000
C     6.892000000     1.713000000    -3.605000000
H     7.705000000     1.032000000    -3.845000000
C     6.245000000     2.451000000    -4.636000000
H     6.475000000     2.349000000    -5.693000000
C     5.317000000     3.439000000    -4.266000000
H     4.850000000     4.047000000    -5.037000000
C     5.019000000     3.721000000    -2.964000000
O     4.051000000     4.682000000    -2.711000000
C     2.640000000     4.551000000    -2.896000000
C     1.764000000     5.558000000    -2.475000000
H     2.264000000     6.449000000    -2.104000000
C     0.397000000     5.504000000    -2.595000000
O    -0.304000000     6.557000000    -2.054000000
C    -1.643000000     6.417000000    -1.806000000
C    -2.523000000     6.840000000    -2.720000000
H    -2.180000000     7.243000000    -3.670000000
C    -3.873000000     6.924000000    -2.373000000
H    -4.557000000     7.286000000    -3.136000000
C    -4.277000000     6.512000000    -1.103000000
H    -5.300000000     6.395000000    -0.755000000
C    -3.337000000     5.966000000    -0.173000000
C    -2.032000000     5.915000000    -0.531000000
H    -1.237000000     5.624000000     0.151000000
C     1.909000000     1.710000000     0.603000000
H     2.824000000     2.077000000     0.143000000
C     1.119000000     0.819000000    -0.182000000
H     1.385000000     0.691000000    -1.228000000
C     0.034000000     0.186000000     0.396000000
C    -0.798000000    -0.799000000    -0.489000000
H    -0.204000000    -1.710000000    -0.595000000
H    -1.698000000    -1.114000000     0.042000000
H    -1.029000000    -0.378000000    -1.470000000
C    -0.312000000     0.414000000     1.713000000
H    -1.123000000    -0.154000000     2.162000000
C     0.499000000     1.222000000     2.509000000
H     0.314000000     1.445000000     3.557000000
C     1.579000000     1.901000000     1.973000000
C     2.484000000     2.776000000     2.773000000
O     2.227000000     2.861000000     3.917000000
O     3.335000000     3.429000000     2.212000000
O    -2.735000000     5.869000000     5.412000000
H    -2.050000000     5.230000000     5.214000000
H    -2.455000000     6.666000000     4.962000000
O     5.041000000     3.504000000     4.782000000
H     4.261000000     3.375000000     4.241000000
H     5.642000000     3.996000000     4.222000000
O     0.760000000     4.206000000     8.522000000
H     1.061000000     3.926000000     7.658000000
H     0.186000000     4.952000000     8.346000000
O     5.490000000     1.330000000     6.521000000
H     5.065000000     1.974000000     5.955000000
H     6.360000000     1.694000000     6.686000000
O     2.351000000     5.726000000     1.174000000
H     2.353000000     4.779000000     1.314000000
H     3.278000000     5.963000000     1.132000000
O     7.672000000     3.075000000     5.909000000
H     7.786000000     2.516000000     5.141000000
H     6.733000000     3.259000000     5.934000000
O     1.108000000     8.365000000     0.822000000
H     1.280000000     7.480000000     0.498000000
H     1.943000000     8.651000000     1.191000000
O     5.163000000     5.252000000     1.591000000
H     4.486000000     4.595000000     1.756000000
H     5.881000000     5.008000000     2.175000000
O     7.197000000     4.316000000     3.102000000
H     7.696000000     5.061000000     3.438000000
H     7.816000000     3.848000000     2.541000000
O     2.965000000     0.915000000     7.803000000
H     2.905000000     0.093000000     8.290000000
H     3.731000000     0.803000000     7.238000000
O     7.770000000     0.848000000     4.118000000
H     7.125000000     0.317000000     3.652000000
H     8.347000000     0.211000000     4.539000000
O     6.323000000     7.427000000     0.713000000
H     5.944000000     6.710000000     1.222000000
H     6.668000000     7.006000000    -0.074000000
O     5.020000000     7.656000000     3.650000000
H     4.852000000     7.949000000     2.755000000
H     4.371000000     6.970000000     3.804000000
O     1.592000000     2.772000000     6.511000000
H     1.895000000     2.736000000     5.604000000
H     1.927000000     1.968000000     6.908000000
O    -0.153000000     4.114000000     4.067000000
H     0.593000000     3.518000000     4.128000000
H    -0.463000000     4.018000000     3.167000000
O     3.677000000     3.289000000     8.827000000
H     3.703000000     2.424000000     8.420000000
H     3.476000000     3.887000000     8.107000000
O     2.658000000     6.189000000     4.050000000
H     1.920000000     6.761000000     3.839000000
H     2.460000000     5.368000000     3.600000000
O     3.906000000     5.027000000     6.435000000
H     3.193000000     5.468000000     5.973000000
H     4.107000000     4.264000000     5.893000000
O     0.037000000     5.954000000     6.122000000
H     0.046000000     5.183000000     5.554000000
H     0.216000000     6.687000000     5.533000000
