218
-1480.03186
C     2.878000000    -1.431000000     4.094000000
H     3.622000000    -1.901000000     3.455000000
C     1.544000000    -1.825000000     4.153000000
C     0.745000000    -1.156000000     5.122000000
H    -0.332000000    -1.293000000     5.071000000
C     1.014000000    -2.843000000     3.091000000
O     1.993000000    -3.776000000     2.609000000
H     0.782000000    -2.111000000     2.303000000
O    -0.169000000    -3.528000000     3.648000000
C    -1.267000000    -3.590000000     2.816000000
C    -2.222000000    -2.564000000     2.947000000
H    -2.157000000    -1.857000000     3.769000000
C    -3.158000000    -2.430000000     1.950000000
O    -4.097000000    -1.423000000     2.232000000
C    -3.236000000    -3.314000000     0.851000000
C    -4.369000000    -3.223000000    -0.164000000
H    -4.559000000    -4.200000000    -0.614000000
C    -4.080000000    -2.204000000    -1.302000000
C    -3.550000000    -2.592000000    -2.524000000
H    -3.297000000    -3.644000000    -2.628000000
H    -5.241000000    -2.841000000     0.370000000
C    -2.225000000    -4.272000000     0.780000000
H    -2.199000000    -5.028000000    -0.001000000
C    -1.226000000    -4.414000000     1.729000000
C    -0.099000000    -5.392000000     1.417000000
H    -0.492000000    -6.289000000     0.933000000
H     0.419000000    -5.890000000     2.240000000
C     0.997000000    -4.781000000     0.570000000
C     1.036000000    -4.983000000    -0.798000000
H     0.279000000    -5.572000000    -1.310000000
C     1.991000000    -4.056000000     1.251000000
C     3.059000000    -3.454000000     0.516000000
H     3.837000000    -2.921000000     1.056000000
C     3.022000000    -3.534000000    -0.866000000
O     3.909000000    -2.740000000    -1.521000000
C     3.403000000    -1.510000000    -2.143000000
C     4.371000000    -0.333000000    -1.923000000
C     4.404000000     0.792000000    -2.806000000
H     3.836000000     0.709000000    -3.730000000
C     5.029000000    -0.281000000    -0.683000000
H     4.753000000    -0.948000000     0.130000000
O     3.202000000    -1.820000000    -3.544000000
H     2.438000000    -1.210000000    -1.708000000
C     1.933000000    -4.227000000    -1.518000000
C     1.844000000    -4.361000000    -3.005000000
H     1.327000000    -5.259000000    -3.348000000
H     2.878000000    -4.446000000    -3.345000000
C     1.161000000    -3.139000000    -3.600000000
C    -0.198000000    -3.164000000    -3.908000000
H    -0.774000000    -4.058000000    -3.684000000
C     1.859000000    -1.933000000    -3.901000000
C     1.207000000    -0.788000000    -4.442000000
H     1.737000000     0.105000000    -4.764000000
C    -0.200000000    -0.796000000    -4.569000000
O    -0.795000000     0.416000000    -4.872000000
C    -1.437000000     1.109000000    -3.735000000
C    -1.251000000     2.621000000    -3.646000000
C    -0.093000000     3.212000000    -4.124000000
H     0.703000000     2.531000000    -4.416000000
C    -2.242000000     3.487000000    -3.046000000
H    -3.063000000     3.075000000    -2.465000000
O    -2.847000000     0.816000000    -3.933000000
H    -1.088000000     0.736000000    -2.761000000
C    -0.887000000    -2.037000000    -4.361000000
C    -2.342000000    -2.097000000    -4.623000000
H    -2.645000000    -3.119000000    -4.865000000
H    -2.561000000    -1.480000000    -5.497000000
C    -3.160000000    -1.586000000    -3.461000000
C    -3.391000000    -0.231000000    -3.217000000
C    -4.162000000     0.100000000    -2.074000000
H    -4.413000000     1.139000000    -1.882000000
C    -4.377000000    -0.846000000    -1.078000000
O    -4.878000000    -0.359000000     0.196000000
C    -3.932000000    -0.302000000     1.326000000
H    -2.903000000    -0.293000000     0.937000000
C    -4.097000000     0.953000000     2.131000000
C    -3.765000000     1.050000000     3.482000000
H    -3.439000000     0.181000000     4.047000000
C    -4.533000000     2.157000000     1.453000000
H    -4.681000000     2.151000000     0.376000000
C    -4.813000000     3.279000000     2.208000000
O    -5.181000000     4.426000000     1.577000000
C    -4.578000000     3.255000000     3.602000000
H    -4.764000000     4.174000000     4.152000000
C    -4.097000000     2.149000000     4.258000000
O    -3.850000000     2.068000000     5.606000000
C    -3.030000000     1.204000000     6.290000000
C    -1.672000000     1.337000000     6.358000000
H    -1.162000000     2.136000000     5.826000000
C    -3.614000000     0.061000000     6.849000000
H    -4.674000000    -0.178000000     6.877000000
C    -2.789000000    -0.989000000     7.374000000
H    -3.317000000    -1.813000000     7.847000000
C    -1.435000000    -0.824000000     7.459000000
H    -0.832000000    -1.631000000     7.866000000
C    -0.859000000     0.307000000     6.889000000
O     0.545000000     0.383000000     6.959000000
C     1.296000000    -0.191000000     5.961000000
C     2.587000000     0.241000000     5.885000000
H     2.848000000     1.078000000     6.527000000
C     3.420000000    -0.344000000     4.965000000
O     4.777000000    -0.083000000     4.935000000
C     5.660000000    -0.340000000     3.913000000
C     5.699000000     0.389000000     2.786000000
H     5.002000000     1.212000000     2.647000000
C     6.614000000    -1.372000000     4.083000000
H     6.578000000    -2.015000000     4.959000000
C     7.626000000    -1.622000000     3.121000000
H     8.371000000    -2.404000000     3.245000000
C     7.641000000    -0.911000000     1.949000000
H     8.434000000    -1.057000000     1.219000000
C     6.643000000     0.052000000     1.787000000
O     6.646000000     0.972000000     0.743000000
C     5.894000000     0.829000000    -0.405000000
C     5.891000000     1.905000000    -1.299000000
H     6.466000000     2.793000000    -1.046000000
C     5.197000000     1.894000000    -2.471000000
O     5.396000000     2.913000000    -3.300000000
C     4.458000000     3.355000000    -4.217000000
C     3.219000000     3.920000000    -3.899000000
H     2.937000000     3.970000000    -2.850000000
C     4.786000000     3.118000000    -5.559000000
H     5.755000000     2.670000000    -5.763000000
C     3.913000000     3.574000000    -6.534000000
H     4.267000000     3.461000000    -7.555000000
C     2.722000000     4.258000000    -6.253000000
H     2.063000000     4.726000000    -6.980000000
C     2.403000000     4.455000000    -4.892000000
O     1.277000000     5.140000000    -4.486000000
C     0.052000000     4.587000000    -4.131000000
C    -0.988000000     5.397000000    -3.686000000
H    -0.837000000     6.468000000    -3.570000000
C    -2.102000000     4.840000000    -3.058000000
O    -3.025000000     5.769000000    -2.536000000
C    -4.137000000     5.315000000    -1.829000000
C    -5.285000000     5.012000000    -2.555000000
H    -5.208000000     5.131000000    -3.633000000
C    -6.398000000     4.483000000    -1.878000000
H    -7.342000000     4.322000000    -2.394000000
C    -6.334000000     4.267000000    -0.516000000
H    -7.220000000     3.946000000     0.026000000
C    -5.214000000     4.531000000     0.176000000
C    -4.125000000     5.068000000    -0.440000000
H    -3.284000000     5.283000000     0.214000000
C    -0.307000000     2.721000000    -0.336000000
H    -0.869000000     3.644000000    -0.461000000
C    -0.741000000     1.380000000    -0.440000000
H    -1.797000000     1.174000000    -0.597000000
C     0.134000000     0.355000000    -0.277000000
C    -0.389000000    -1.005000000    -0.235000000
H     0.289000000    -1.770000000    -0.620000000
H    -0.751000000    -1.349000000     0.736000000
H    -1.258000000    -0.952000000    -0.894000000
C     1.482000000     0.622000000     0.022000000
H     2.139000000    -0.191000000     0.318000000
C     1.901000000     1.955000000     0.125000000
H     2.966000000     2.139000000     0.241000000
C     1.015000000     2.993000000    -0.117000000
C     1.599000000     4.362000000     0.029000000
O     2.748000000     4.469000000     0.254000000
O     0.889000000     5.287000000    -0.278000000
O     1.152000000     7.635000000    -1.587000000
H     0.862000000     6.850000000    -1.123000000
H     0.627000000     7.648000000    -2.388000000
O     1.384000000     8.544000000    -4.584000000
H     2.263000000     8.803000000    -4.860000000
H     1.456000000     7.607000000    -4.400000000
O     2.511000000     7.419000000     1.142000000
H     1.886000000     7.989000000     0.693000000
H     2.606000000     6.664000000     0.562000000
O     7.508000000     4.598000000     2.128000000
H     7.917000000     5.257000000     1.567000000
H     6.573000000     4.796000000     2.088000000
O     4.817000000     5.201000000     1.646000000
H     4.539000000     6.107000000     1.780000000
H     4.126000000     4.815000000     1.107000000
O    -2.204000000     5.334000000     2.586000000
H    -2.183000000     5.801000000     3.422000000
H    -1.969000000     4.434000000     2.810000000
O     2.374000000     8.094000000     3.955000000
H     2.789000000     8.053000000     3.094000000
H     1.470000000     8.351000000     3.774000000
O     1.970000000     6.345000000     6.228000000
H     2.901000000     6.158000000     6.349000000
H     1.920000000     6.767000000     5.370000000
O    -0.621000000     8.200000000     3.646000000
H    -0.510000000     8.074000000     2.704000000
H    -0.420000000     7.345000000     4.027000000
O    -0.836000000     6.899000000     0.865000000
H    -1.022000000     6.262000000     1.555000000
H    -0.333000000     6.408000000     0.215000000
O     1.265000000    10.097000000    -0.329000000
H     0.975000000     9.338000000    -0.834000000
H     1.865000000    10.560000000    -0.914000000
O     4.868000000     8.900000000     2.525000000
H     4.347000000     9.644000000     2.223000000
H     4.697000000     8.855000000     3.466000000
O     3.624000000     6.261000000    -2.099000000
H     3.395000000     5.470000000    -1.611000000
H     2.999000000     6.919000000    -1.795000000
O    -0.072000000     5.618000000     4.459000000
H    -0.072000000     4.728000000     4.109000000
H    -0.471000000     5.535000000     5.326000000
O    -2.745000000     8.780000000     0.824000000
H    -2.018000000     8.164000000     0.738000000
H    -3.252000000     8.451000000     1.567000000
O     2.607000000     2.664000000     3.201000000
H     3.298000000     2.602000000     3.861000000
H     3.038000000     3.056000000     2.441000000
O     4.724000000     5.958000000     6.061000000
H     5.497000000     6.498000000     5.898000000
H     4.705000000     5.340000000     5.330000000
O    -0.130000000     2.820000000     3.138000000
H    -0.133000000     2.510000000     2.233000000
H     0.794000000     2.821000000     3.389000000
O     5.977000000     6.547000000    -3.351000000
H     5.578000000     7.092000000    -4.029000000
H     5.234000000     6.161000000    -2.887000000
