218
-1493.57029
C     2.751000000    -1.144000000     4.255000000
H     3.460000000    -1.866000000     3.855000000
C     1.403000000    -1.398000000     4.088000000
C     0.452000000    -0.596000000     4.748000000
H    -0.598000000    -0.830000000     4.596000000
C     0.923000000    -2.531000000     3.207000000
O     1.875000000    -3.608000000     3.020000000
H     0.644000000    -2.040000000     2.264000000
O    -0.302000000    -3.110000000     3.652000000
C    -1.350000000    -3.320000000     2.738000000
C    -2.358000000    -2.407000000     2.715000000
H    -2.536000000    -1.688000000     3.511000000
C    -3.438000000    -2.547000000     1.823000000
O    -4.451000000    -1.569000000     1.855000000
C    -3.320000000    -3.507000000     0.817000000
C    -4.371000000    -3.518000000    -0.281000000
H    -4.211000000    -4.549000000    -0.603000000
C    -3.991000000    -2.602000000    -1.436000000
C    -3.207000000    -3.010000000    -2.460000000
H    -2.800000000    -4.015000000    -2.532000000
H    -5.394000000    -3.379000000     0.074000000
C    -2.320000000    -4.439000000     0.874000000
H    -2.228000000    -5.150000000     0.057000000
C    -1.343000000    -4.408000000     1.885000000
C    -0.072000000    -5.269000000     1.779000000
H    -0.295000000    -6.220000000     1.291000000
H     0.243000000    -5.653000000     2.751000000
C     1.089000000    -4.635000000     1.046000000
C     1.221000000    -4.866000000    -0.341000000
H     0.465000000    -5.401000000    -0.910000000
C     2.090000000    -3.944000000     1.723000000
C     3.162000000    -3.400000000     1.052000000
H     3.752000000    -2.612000000     1.514000000
C     3.315000000    -3.587000000    -0.316000000
O     4.187000000    -2.715000000    -1.012000000
C     3.559000000    -1.450000000    -1.563000000
C     4.404000000    -0.229000000    -1.173000000
C     4.290000000     0.952000000    -1.874000000
H     3.442000000     1.109000000    -2.536000000
C     5.177000000    -0.315000000    -0.055000000
H     5.312000000    -1.230000000     0.515000000
O     3.432000000    -1.463000000    -3.000000000
H     2.610000000    -1.276000000    -1.034000000
C     2.315000000    -4.261000000    -1.012000000
C     2.380000000    -4.330000000    -2.548000000
H     2.015000000    -5.299000000    -2.896000000
H     3.391000000    -4.294000000    -2.959000000
C     1.587000000    -3.112000000    -3.251000000
C     0.352000000    -3.338000000    -3.689000000
H    -0.125000000    -4.264000000    -3.381000000
C     2.197000000    -1.853000000    -3.460000000
C     1.482000000    -0.917000000    -4.210000000
H     1.911000000     0.082000000    -4.241000000
C     0.215000000    -1.185000000    -4.658000000
O    -0.497000000    -0.141000000    -5.214000000
C    -1.255000000     0.544000000    -4.177000000
C    -1.098000000     2.110000000    -4.251000000
C     0.093000000     2.702000000    -4.731000000
H     0.765000000     2.010000000    -5.232000000
C    -2.054000000     2.962000000    -3.641000000
H    -2.908000000     2.396000000    -3.277000000
O    -2.683000000     0.207000000    -4.226000000
H    -0.809000000     0.241000000    -3.218000000
C    -0.411000000    -2.432000000    -4.386000000
C    -1.916000000    -2.672000000    -4.598000000
H    -2.114000000    -3.743000000    -4.667000000
H    -2.131000000    -2.183000000    -5.551000000
C    -2.792000000    -2.136000000    -3.493000000
C    -3.139000000    -0.792000000    -3.365000000
C    -3.889000000    -0.365000000    -2.264000000
H    -4.100000000     0.696000000    -2.158000000
C    -4.354000000    -1.235000000    -1.325000000
O    -4.949000000    -0.737000000    -0.177000000
C    -4.236000000    -0.461000000     1.031000000
H    -3.212000000    -0.409000000     0.635000000
C    -4.640000000     0.915000000     1.647000000
C    -4.420000000     1.212000000     2.996000000
H    -3.948000000     0.464000000     3.627000000
C    -5.191000000     1.818000000     0.795000000
H    -5.371000000     1.606000000    -0.256000000
C    -5.466000000     3.093000000     1.275000000
O    -6.024000000     4.068000000     0.541000000
C    -5.104000000     3.435000000     2.614000000
H    -5.148000000     4.485000000     2.891000000
C    -4.616000000     2.474000000     3.446000000
O    -4.353000000     2.833000000     4.757000000
C    -3.540000000     2.107000000     5.566000000
C    -2.164000000     2.178000000     5.304000000
H    -1.788000000     2.770000000     4.473000000
C    -4.075000000     1.362000000     6.652000000
H    -5.099000000     1.440000000     7.006000000
C    -3.175000000     0.619000000     7.481000000
H    -3.577000000     0.060000000     8.322000000
C    -1.844000000     0.569000000     7.088000000
H    -1.097000000    -0.098000000     7.511000000
C    -1.313000000     1.424000000     6.107000000
O     0.064000000     1.544000000     5.917000000
C     0.824000000     0.511000000     5.578000000
C     2.187000000     0.689000000     5.805000000
H     2.637000000     1.528000000     6.329000000
C     3.115000000    -0.145000000     5.178000000
O     4.465000000     0.026000000     5.496000000
C     5.524000000    -0.244000000     4.645000000
C     5.531000000     0.270000000     3.371000000
H     4.690000000     0.809000000     2.942000000
C     6.508000000    -1.046000000     5.088000000
H     6.451000000    -1.567000000     6.041000000
C     7.676000000    -1.307000000     4.332000000
H     8.426000000    -1.973000000     4.751000000
C     7.727000000    -0.796000000     3.013000000
H     8.603000000    -1.028000000     2.414000000
C     6.712000000     0.057000000     2.566000000
O     6.945000000     0.665000000     1.323000000
C     6.019000000     0.752000000     0.291000000
C     5.912000000     1.951000000    -0.474000000
H     6.566000000     2.767000000    -0.176000000
C     5.024000000     2.036000000    -1.538000000
O     5.057000000     3.196000000    -2.363000000
C     4.438000000     3.316000000    -3.594000000
C     3.218000000     3.993000000    -3.679000000
H     2.676000000     4.349000000    -2.806000000
C     5.141000000     2.869000000    -4.701000000
H     6.062000000     2.311000000    -4.548000000
C     4.628000000     3.080000000    -5.992000000
H     5.156000000     2.657000000    -6.843000000
C     3.379000000     3.722000000    -6.067000000
H     2.948000000     3.834000000    -7.059000000
C     2.673000000     4.161000000    -4.949000000
O     1.444000000     4.697000000    -5.062000000
C     0.342000000     4.042000000    -4.542000000
C    -0.650000000     4.807000000    -3.949000000
H    -0.406000000     5.832000000    -3.681000000
C    -1.900000000     4.323000000    -3.504000000
O    -2.841000000     5.150000000    -2.872000000
C    -4.076000000     4.701000000    -2.423000000
C    -5.092000000     4.654000000    -3.460000000
H    -4.843000000     4.748000000    -4.514000000
C    -6.380000000     4.533000000    -3.066000000
H    -7.171000000     4.575000000    -3.811000000
C    -6.738000000     4.275000000    -1.727000000
H    -7.774000000     4.112000000    -1.440000000
C    -5.697000000     4.250000000    -0.756000000
C    -4.357000000     4.523000000    -1.065000000
H    -3.633000000     4.608000000    -0.259000000
C    -0.177000000     3.065000000    -0.585000000
H    -0.800000000     3.906000000    -0.878000000
C    -0.654000000     1.698000000    -0.584000000
H    -1.668000000     1.580000000    -0.958000000
C     0.121000000     0.574000000    -0.202000000
C    -0.339000000    -0.882000000    -0.382000000
H    -0.780000000    -1.246000000     0.549000000
H    -1.068000000    -0.838000000    -1.194000000
H     0.439000000    -1.545000000    -0.764000000
C     1.373000000     0.863000000     0.211000000
H     2.049000000     0.045000000     0.446000000
C     1.892000000     2.156000000     0.206000000
H     2.925000000     2.276000000     0.522000000
C     1.181000000     3.276000000    -0.236000000
C     1.849000000     4.588000000    -0.012000000
O     3.019000000     4.592000000     0.423000000
O     1.250000000     5.671000000    -0.141000000
O     1.550000000     7.666000000    -2.001000000
H     1.359000000     6.995000000    -1.346000000
H     1.132000000     8.457000000    -1.663000000
O     2.786000000     5.742000000     2.874000000
H     2.102000000     6.395000000     2.725000000
H     2.831000000     5.250000000     2.054000000
O     6.202000000     3.244000000     4.175000000
H     7.126000000     2.999000000     4.127000000
H     6.009000000     3.620000000     3.316000000
O     5.262000000     4.037000000     1.675000000
H     5.799000000     4.804000000     1.473000000
H     4.424000000     4.212000000     1.248000000
O    -0.840000000     5.297000000     3.602000000
H    -1.248000000     5.066000000     4.436000000
H    -0.221000000     4.588000000     3.433000000
O     1.037000000     8.186000000    -4.672000000
H     1.307000000     8.056000000    -3.763000000
H     1.563000000     7.561000000    -5.170000000
O     4.899000000     6.640000000     4.219000000
H     4.179000000     6.194000000     3.772000000
H     4.656000000     7.566000000     4.197000000
O    -2.208000000     8.785000000    -2.574000000
H    -2.144000000     9.262000000    -1.746000000
H    -1.429000000     8.229000000    -2.591000000
O    -1.196000000     7.000000000    -0.355000000
H    -1.727000000     6.897000000     0.435000000
H    -0.474000000     6.382000000    -0.240000000
O     2.476000000    10.809000000     1.342000000
H     2.673000000     9.891000000     1.156000000
H     2.914000000    10.984000000     2.175000000
O     0.570000000     7.501000000     3.359000000
H     0.893000000     7.799000000     4.209000000
H     0.127000000     6.674000000     3.548000000
O     4.295000000     6.736000000    -0.192000000
H     3.924000000     5.856000000    -0.126000000
H     3.592000000     7.316000000     0.100000000
O     6.809000000     7.554000000    -0.490000000
H     5.951000000     7.130000000    -0.511000000
H     6.934000000     7.796000000     0.428000000
O     0.750000000     4.556000000     6.066000000
H     1.107000000     3.837000000     5.545000000
H     1.489000000     4.861000000     6.592000000
O    -2.729000000     6.429000000     2.054000000
H    -2.087000000     5.994000000     2.614000000
H    -3.336000000     6.847000000     2.665000000
O     3.249000000     3.273000000     3.882000000
H     3.526000000     4.119000000     3.530000000
H     4.045000000     2.896000000     4.255000000
O     0.404000000     3.092000000     3.207000000
H     0.475000000     2.353000000     2.603000000
H     1.308000000     3.286000000     3.454000000
O     1.939000000     8.035000000     0.888000000
H     1.543000000     8.205000000     1.743000000
H     1.584000000     7.186000000     0.625000000
O     4.162000000     7.420000000    -3.321000000
H     4.687000000     8.037000000    -2.812000000
H     3.413000000     7.221000000    -2.758000000
