218
-1446.35869
C     2.948000000    -2.661000000     3.712000000
H     3.614000000    -2.926000000     2.895000000
C     1.556000000    -3.024000000     3.689000000
C     0.729000000    -2.694000000     4.801000000
H    -0.291000000    -3.044000000     4.667000000
C     1.011000000    -3.608000000     2.397000000
O     2.031000000    -4.170000000     1.496000000
H     0.613000000    -2.693000000     1.933000000
O    -0.088000000    -4.515000000     2.631000000
C    -1.153000000    -4.388000000     1.749000000
C    -2.297000000    -3.782000000     2.209000000
H    -2.260000000    -3.369000000     3.213000000
C    -3.298000000    -3.362000000     1.326000000
O    -4.110000000    -2.314000000     1.712000000
C    -3.351000000    -3.848000000    -0.010000000
C    -4.446000000    -3.367000000    -0.910000000
H    -4.808000000    -4.148000000    -1.582000000
C    -3.968000000    -2.112000000    -1.639000000
C    -3.191000000    -2.220000000    -2.855000000
H    -2.737000000    -3.146000000    -3.198000000
H    -5.353000000    -3.224000000    -0.319000000
C    -2.259000000    -4.598000000    -0.436000000
H    -2.100000000    -4.911000000    -1.464000000
C    -1.100000000    -4.736000000     0.411000000
C     0.122000000    -5.533000000    -0.202000000
H    -0.232000000    -6.100000000    -1.066000000
H     0.615000000    -6.025000000     0.639000000
C     1.194000000    -4.525000000    -0.757000000
C     1.350000000    -4.225000000    -2.079000000
H     0.679000000    -4.736000000    -2.765000000
C     2.061000000    -3.912000000     0.175000000
C     3.068000000    -3.023000000    -0.233000000
H     3.659000000    -2.509000000     0.521000000
C     3.166000000    -2.690000000    -1.550000000
O     4.041000000    -1.732000000    -1.971000000
C     3.379000000    -0.461000000    -2.221000000
C     4.125000000     0.727000000    -1.568000000
C     3.922000000     2.097000000    -2.025000000
H     3.231000000     2.248000000    -2.850000000
C     4.800000000     0.576000000    -0.363000000
H     4.732000000    -0.456000000    -0.029000000
O     3.194000000    -0.220000000    -3.598000000
H     2.387000000    -0.542000000    -1.752000000
C     2.298000000    -3.310000000    -2.532000000
C     2.339000000    -2.939000000    -4.025000000
H     2.210000000    -3.785000000    -4.704000000
H     3.347000000    -2.616000000    -4.294000000
C     1.453000000    -1.735000000    -4.210000000
C     0.114000000    -1.963000000    -4.513000000
H    -0.190000000    -3.007000000    -4.492000000
C     1.946000000    -0.476000000    -4.229000000
C     1.129000000     0.536000000    -4.574000000
H     1.466000000     1.550000000    -4.372000000
C    -0.244000000     0.301000000    -4.874000000
O    -1.134000000     1.380000000    -4.956000000
C    -1.641000000     1.768000000    -3.661000000
C    -1.481000000     3.247000000    -3.348000000
C    -0.530000000     3.926000000    -4.090000000
H     0.232000000     3.408000000    -4.668000000
C    -2.319000000     3.953000000    -2.513000000
H    -3.178000000     3.459000000    -2.067000000
O    -3.038000000     1.357000000    -3.788000000
H    -1.065000000     1.154000000    -2.953000000
C    -0.765000000    -0.998000000    -4.810000000
C    -2.234000000    -1.268000000    -4.934000000
H    -2.437000000    -2.200000000    -5.466000000
H    -2.630000000    -0.477000000    -5.573000000
C    -3.011000000    -1.112000000    -3.646000000
C    -3.322000000     0.175000000    -3.141000000
C    -3.997000000     0.233000000    -1.940000000
H    -4.300000000     1.241000000    -1.670000000
C    -4.335000000    -0.879000000    -1.177000000
O    -4.892000000    -0.804000000     0.043000000
C    -3.938000000    -0.941000000     1.154000000
H    -2.931000000    -0.874000000     0.715000000
C    -4.115000000     0.196000000     2.156000000
C    -3.940000000    -0.082000000     3.525000000
H    -3.911000000    -1.085000000     3.943000000
C    -4.344000000     1.544000000     1.821000000
H    -4.443000000     1.818000000     0.774000000
C    -4.117000000     2.534000000     2.780000000
O    -4.154000000     3.864000000     2.526000000
C    -3.836000000     2.222000000     4.066000000
H    -3.555000000     2.996000000     4.775000000
C    -3.815000000     0.907000000     4.523000000
O    -3.571000000     0.556000000     5.880000000
C    -2.988000000    -0.562000000     6.271000000
C    -1.545000000    -0.530000000     6.443000000
H    -1.009000000     0.399000000     6.272000000
C    -3.672000000    -1.699000000     6.789000000
H    -4.747000000    -1.702000000     6.949000000
C    -3.018000000    -2.757000000     7.347000000
H    -3.593000000    -3.511000000     7.879000000
C    -1.623000000    -2.788000000     7.294000000
H    -1.136000000    -3.727000000     7.544000000
C    -0.923000000    -1.710000000     6.795000000
O     0.419000000    -1.707000000     6.936000000
C     1.235000000    -2.040000000     5.921000000
C     2.625000000    -1.744000000     5.984000000
H     3.057000000    -1.367000000     6.908000000
C     3.402000000    -1.980000000     4.873000000
O     4.740000000    -1.730000000     5.051000000
C     5.592000000    -1.259000000     4.062000000
C     5.283000000    -0.151000000     3.289000000
H     4.410000000     0.480000000     3.431000000
C     6.684000000    -2.038000000     3.771000000
H     6.878000000    -2.959000000     4.314000000
C     7.581000000    -1.631000000     2.750000000
H     8.459000000    -2.249000000     2.579000000
C     7.254000000    -0.503000000     1.979000000
H     7.930000000    -0.248000000     1.167000000
C     6.117000000     0.284000000     2.242000000
O     5.913000000     1.438000000     1.580000000
C     5.341000000     1.643000000     0.371000000
C     5.266000000     2.941000000    -0.167000000
H     5.741000000     3.791000000     0.315000000
C     4.572000000     3.127000000    -1.363000000
O     4.333000000     4.463000000    -1.817000000
C     3.775000000     4.655000000    -3.034000000
C     2.455000000     5.055000000    -3.138000000
H     1.878000000     5.236000000    -2.235000000
C     4.582000000     4.327000000    -4.126000000
H     5.545000000     3.909000000    -3.844000000
C     4.084000000     4.519000000    -5.444000000
H     4.704000000     4.235000000    -6.290000000
C     2.780000000     5.012000000    -5.598000000
H     2.323000000     5.102000000    -6.581000000
C     2.041000000     5.359000000    -4.429000000
O     0.742000000     5.925000000    -4.665000000
C    -0.327000000     5.312000000    -3.992000000
C    -1.158000000     6.053000000    -3.128000000
H    -0.896000000     7.074000000    -2.863000000
C    -2.113000000     5.392000000    -2.366000000
O    -2.803000000     6.098000000    -1.438000000
C    -3.854000000     5.548000000    -0.709000000
C    -5.149000000     5.370000000    -1.272000000
H    -5.416000000     5.633000000    -2.292000000
C    -6.121000000     4.825000000    -0.442000000
H    -7.151000000     4.787000000    -0.785000000
C    -5.770000000     4.300000000     0.765000000
H    -6.577000000     3.745000000     1.237000000
C    -4.464000000     4.405000000     1.344000000
C    -3.511000000     5.095000000     0.549000000
H    -2.456000000     5.136000000     0.805000000
C    -0.605000000     2.247000000     2.067000000
H    -1.264000000     3.106000000     2.161000000
C    -0.624000000     1.575000000     0.862000000
H    -1.169000000     2.017000000     0.032000000
C     0.101000000     0.440000000     0.662000000
C     0.130000000    -0.348000000    -0.638000000
H    -0.934000000    -0.420000000    -0.873000000
H     0.552000000     0.249000000    -1.450000000
H     0.623000000    -1.318000000    -0.541000000
C     0.911000000    -0.084000000     1.712000000
H     1.699000000    -0.820000000     1.569000000
C     0.943000000     0.618000000     2.928000000
H     1.625000000     0.274000000     3.702000000
C     0.195000000     1.781000000     3.136000000
C     0.263000000     2.565000000     4.400000000
O     0.950000000     2.261000000     5.385000000
O    -0.244000000     3.664000000     4.454000000
O    -1.683000000     7.073000000     7.246000000
H    -2.300000000     6.341000000     7.236000000
H    -1.128000000     6.907000000     8.008000000
O     0.572000000     7.423000000     0.730000000
H     0.503000000     6.595000000     1.205000000
H     1.029000000     8.009000000     1.334000000
O     2.289000000     1.824000000     8.468000000
H     1.481000000     2.336000000     8.510000000
H     2.545000000     1.856000000     7.546000000
O    -3.705000000     4.992000000     7.708000000
H    -4.451000000     5.373000000     8.171000000
H    -4.098000000     4.458000000     7.018000000
O     5.292000000     2.189000000     7.730000000
H     5.188000000     1.253000000     7.904000000
H     4.682000000     2.369000000     7.016000000
O     3.472000000     2.693000000     5.696000000
H     2.530000000     2.603000000     5.551000000
H     3.759000000     3.314000000     5.026000000
O     0.831000000     4.731000000    10.159000000
H     1.692000000     4.360000000    10.349000000
H     0.404000000     4.076000000     9.606000000
O     0.755000000     5.287000000     2.476000000
H     1.628000000     4.936000000     2.302000000
H     0.405000000     4.726000000     3.168000000
O    -4.928000000     6.495000000     4.820000000
H    -5.133000000     7.419000000     4.961000000
H    -3.972000000     6.466000000     4.774000000
O     1.307000000     5.502000000     5.710000000
H     0.894000000     4.950000000     5.046000000
H     1.130000000     5.055000000     6.538000000
O    -2.193000000     5.686000000     4.179000000
H    -1.447000000     5.329000000     4.661000000
H    -2.560000000     4.934000000     3.714000000
O     3.621000000     4.667000000     3.553000000
H     3.206000000     4.086000000     2.916000000
H     4.363000000     5.047000000     3.084000000
O     2.658000000     2.959000000     1.573000000
H     1.965000000     2.308000000     1.461000000
H     3.412000000     2.587000000     1.114000000
O    -1.627000000     1.349000000     9.168000000
H    -2.515000000     1.148000000     8.875000000
H    -1.340000000     0.558000000     9.624000000
O    -0.110000000     3.176000000     7.830000000
H    -0.094000000     2.948000000     6.901000000
H    -0.730000000     2.558000000     8.217000000
O    -2.087000000     8.181000000     3.094000000
H    -1.192000000     8.510000000     3.183000000
H    -2.084000000     7.349000000     3.567000000
O     1.997000000     7.917000000     4.687000000
H     1.820000000     6.990000000     4.848000000
H     1.380000000     8.381000000     5.253000000
O    -4.208000000     0.873000000     8.645000000
H    -5.006000000     1.317000000     8.932000000
H    -4.091000000     1.153000000     7.737000000
O     4.245000000     6.141000000     6.400000000
H     3.477000000     6.082000000     5.831000000
H     4.644000000     5.272000000     6.353000000
