218
-1450.72760
C     3.469000000    -2.007000000     3.273000000
H     3.817000000    -2.771000000     2.582000000
C     2.127000000    -1.875000000     3.547000000
C     1.637000000    -0.743000000     4.276000000
H     0.580000000    -0.552000000     4.445000000
C     1.065000000    -2.750000000     2.962000000
O     1.626000000    -3.959000000     2.424000000
H     0.633000000    -2.151000000     2.146000000
O     0.034000000    -3.160000000     3.854000000
C    -1.265000000    -3.184000000     3.306000000
C    -2.016000000    -2.073000000     3.617000000
H    -1.617000000    -1.398000000     4.371000000
C    -3.128000000    -1.764000000     2.916000000
O    -3.809000000    -0.632000000     3.154000000
C    -3.618000000    -2.597000000     1.919000000
C    -4.931000000    -2.370000000     1.127000000
H    -5.258000000    -3.315000000     0.687000000
C    -4.553000000    -1.415000000    -0.067000000
C    -4.343000000    -1.982000000    -1.325000000
H    -4.435000000    -3.048000000    -1.515000000
H    -5.639000000    -1.854000000     1.780000000
C    -2.826000000    -3.675000000     1.603000000
H    -3.161000000    -4.274000000     0.760000000
C    -1.661000000    -4.014000000     2.218000000
C    -0.935000000    -5.314000000     1.809000000
H    -1.616000000    -5.950000000     1.239000000
H    -0.511000000    -5.857000000     2.656000000
C     0.098000000    -4.931000000     0.765000000
C    -0.126000000    -5.127000000    -0.612000000
H    -1.007000000    -5.660000000    -0.962000000
C     1.359000000    -4.305000000     1.107000000
C     2.336000000    -3.991000000     0.194000000
H     3.349000000    -3.707000000     0.468000000
C     2.036000000    -4.046000000    -1.155000000
O     2.863000000    -3.489000000    -2.055000000
C     2.367000000    -2.196000000    -2.647000000
C     3.511000000    -1.230000000    -2.634000000
C     3.555000000    -0.152000000    -3.517000000
H     2.946000000    -0.139000000    -4.417000000
C     4.553000000    -1.283000000    -1.656000000
H     4.473000000    -2.073000000    -0.914000000
O     1.861000000    -2.442000000    -4.009000000
H     1.593000000    -1.848000000    -1.946000000
C     0.801000000    -4.638000000    -1.595000000
C     0.400000000    -4.680000000    -3.029000000
H    -0.143000000    -5.590000000    -3.293000000
H     1.238000000    -4.868000000    -3.704000000
C    -0.330000000    -3.396000000    -3.577000000
C    -1.697000000    -3.192000000    -3.361000000
H    -2.234000000    -3.947000000    -2.791000000
C     0.445000000    -2.381000000    -4.120000000
C    -0.110000000    -1.184000000    -4.320000000
H     0.465000000    -0.278000000    -4.499000000
C    -1.428000000    -0.958000000    -4.296000000
O    -1.813000000     0.363000000    -4.487000000
C    -2.095000000     1.085000000    -3.244000000
C    -1.576000000     2.509000000    -3.301000000
C    -0.572000000     2.830000000    -4.270000000
H    -0.141000000     2.115000000    -4.967000000
C    -2.192000000     3.584000000    -2.625000000
H    -2.932000000     3.351000000    -1.864000000
O    -3.557000000     1.045000000    -3.075000000
H    -1.496000000     0.566000000    -2.481000000
C    -2.280000000    -2.001000000    -3.918000000
C    -3.772000000    -1.734000000    -3.726000000
H    -4.310000000    -2.674000000    -3.859000000
H    -4.078000000    -1.006000000    -4.481000000
C    -4.110000000    -1.147000000    -2.391000000
C    -4.053000000     0.199000000    -2.187000000
C    -4.325000000     0.813000000    -0.938000000
H    -4.280000000     1.898000000    -0.896000000
C    -4.652000000    -0.057000000     0.139000000
O    -4.825000000     0.433000000     1.363000000
C    -3.690000000     0.396000000     2.220000000
H    -2.781000000     0.196000000     1.634000000
C    -3.546000000     1.705000000     2.986000000
C    -2.848000000     1.706000000     4.201000000
H    -2.573000000     0.804000000     4.743000000
C    -3.832000000     2.928000000     2.327000000
H    -4.297000000     2.879000000     1.346000000
C    -3.517000000     4.118000000     2.943000000
O    -3.832000000     5.338000000     2.291000000
C    -2.921000000     4.087000000     4.178000000
H    -2.788000000     5.045000000     4.674000000
C    -2.569000000     2.931000000     4.848000000
O    -2.141000000     2.969000000     6.166000000
C    -1.215000000     2.062000000     6.678000000
C    -0.015000000     1.999000000     6.053000000
H     0.250000000     2.440000000     5.095000000
C    -1.294000000     1.419000000     7.920000000
H    -2.199000000     1.535000000     8.512000000
C    -0.278000000     0.630000000     8.487000000
H    -0.457000000     0.100000000     9.419000000
C     0.929000000     0.565000000     7.802000000
H     1.705000000    -0.051000000     8.250000000
C     1.066000000     1.184000000     6.502000000
O     2.190000000     1.184000000     5.663000000
C     2.560000000     0.155000000     4.858000000
C     3.913000000    -0.029000000     4.583000000
H     4.588000000     0.569000000     5.189000000
C     4.387000000    -1.107000000     3.835000000
O     5.786000000    -1.318000000     3.746000000
C     6.338000000    -1.795000000     2.560000000
C     6.225000000    -1.058000000     1.384000000
H     5.583000000    -0.182000000     1.433000000
C     6.942000000    -3.063000000     2.418000000
H     7.003000000    -3.632000000     3.342000000
C     7.304000000    -3.586000000     1.197000000
H     7.643000000    -4.610000000     1.060000000
C     7.256000000    -2.803000000     0.065000000
H     7.596000000    -3.192000000    -0.891000000
C     6.695000000    -1.489000000     0.162000000
O     6.752000000    -0.606000000    -0.903000000
C     5.664000000    -0.468000000    -1.692000000
C     5.690000000     0.623000000    -2.469000000
H     6.581000000     1.232000000    -2.596000000
C     4.587000000     0.861000000    -3.396000000
O     4.733000000     1.896000000    -4.366000000
C     3.841000000     2.358000000    -5.297000000
C     2.799000000     3.151000000    -4.804000000
H     2.582000000     3.189000000    -3.740000000
C     4.127000000     2.214000000    -6.645000000
H     4.923000000     1.556000000    -6.983000000
C     3.311000000     2.998000000    -7.563000000
H     3.499000000     2.973000000    -8.634000000
C     2.219000000     3.646000000    -7.010000000
H     1.607000000     4.078000000    -7.797000000
C     1.904000000     3.742000000    -5.695000000
O     0.805000000     4.555000000    -5.353000000
C    -0.165000000     4.172000000    -4.465000000
C    -0.600000000     5.137000000    -3.588000000
H    -0.166000000     6.119000000    -3.754000000
C    -1.689000000     4.869000000    -2.760000000
O    -2.170000000     5.931000000    -2.017000000
C    -3.319000000     5.798000000    -1.262000000
C    -4.586000000     6.171000000    -1.677000000
H    -4.780000000     6.596000000    -2.659000000
C    -5.649000000     6.143000000    -0.770000000
H    -6.566000000     6.647000000    -1.066000000
C    -5.374000000     5.769000000     0.506000000
H    -6.194000000     5.939000000     1.199000000
C    -4.093000000     5.376000000     0.928000000
C    -3.090000000     5.360000000     0.020000000
H    -2.117000000     5.118000000     0.441000000
C     0.163000000     2.236000000     1.601000000
H    -0.209000000     3.186000000     1.978000000
C    -0.650000000     1.273000000     0.995000000
H    -1.677000000     1.521000000     0.737000000
C    -0.062000000     0.085000000     0.535000000
C    -1.020000000    -0.896000000    -0.166000000
H    -1.047000000    -1.798000000     0.449000000
H    -2.012000000    -0.462000000    -0.307000000
H    -0.588000000    -1.153000000    -1.135000000
C     1.323000000    -0.180000000     0.692000000
H     1.784000000    -1.055000000     0.240000000
C     2.103000000     0.794000000     1.276000000
H     3.160000000     0.572000000     1.395000000
C     1.506000000     1.974000000     1.814000000
C     2.412000000     2.900000000     2.636000000
O     3.622000000     2.709000000     2.690000000
O     1.843000000     3.883000000     3.130000000
O     4.983000000     5.627000000     7.005000000
H     4.213000000     5.106000000     6.777000000
H     5.526000000     5.610000000     6.217000000
O     3.941000000     5.445000000     1.709000000
H     4.888000000     5.521000000     1.592000000
H     3.807000000     4.542000000     1.997000000
O     1.648000000     6.014000000     0.417000000
H     1.038000000     6.187000000     1.134000000
H     2.513000000     6.041000000     0.827000000
O     0.184000000     4.918000000     7.007000000
H     0.098000000     4.946000000     7.960000000
H    -0.524000000     4.341000000     6.720000000
O     6.733000000     5.436000000     1.531000000
H     6.883000000     4.565000000     1.165000000
H     7.600000000     5.731000000     1.810000000
O     3.561000000     7.095000000     4.397000000
H     3.203000000     6.380000000     4.923000000
H     3.572000000     6.752000000     3.503000000
O     5.199000000     3.359000000     4.729000000
H     5.639000000     4.115000000     4.341000000
H     4.537000000     3.109000000     4.084000000
O     5.296000000     3.804000000    -1.385000000
H     5.410000000     3.180000000    -0.668000000
H     4.352000000     3.956000000    -1.422000000
O     2.856000000     7.595000000    -1.555000000
H     2.116000000     7.898000000    -2.081000000
H     2.506000000     6.860000000    -1.051000000
O     8.268000000     2.426000000    -0.622000000
H     7.417000000     2.301000000    -0.203000000
H     8.444000000     3.363000000    -0.533000000
O     2.658000000     3.864000000    -0.730000000
H     2.212000000     4.628000000    -0.364000000
H     2.157000000     3.116000000    -0.405000000
O     6.136000000     2.374000000     1.151000000
H     6.626000000     1.825000000     1.763000000
H     5.316000000     2.568000000     1.607000000
O     0.206000000     5.958000000     2.727000000
H     0.020000000     6.270000000     3.613000000
H     0.579000000     5.085000000     2.854000000
O    -0.201000000     6.916000000     5.162000000
H    -0.003000000     6.295000000     5.863000000
H    -0.975000000     7.387000000     5.470000000
O     6.718000000     6.282000000     4.545000000
H     7.056000000     6.506000000     3.678000000
H     7.009000000     7.000000000     5.108000000
O     7.811000000     1.630000000     3.969000000
H     7.705000000     1.285000000     4.855000000
H     7.528000000     2.543000000     4.031000000
O    -0.838000000     8.584000000     1.766000000
H    -0.703000000     7.701000000     2.109000000
H    -1.598000000     8.914000000     2.245000000
O     2.560000000     4.671000000     5.779000000
H     2.607000000     4.264000000     4.914000000
H     1.629000000     4.845000000     5.913000000
O     3.983000000     3.070000000     7.495000000
H     3.285000000     3.428000000     6.948000000
H     3.680000000     2.191000000     7.726000000
