218
-1453.89049
C     2.071000000    -3.135000000     3.981000000
H     2.357000000    -4.003000000     3.392000000
C     0.767000000    -2.616000000     3.828000000
C     0.396000000    -1.480000000     4.631000000
H    -0.578000000    -1.035000000     4.443000000
C    -0.112000000    -3.210000000     2.724000000
O     0.362000000    -4.503000000     2.176000000
H    -0.177000000    -2.435000000     1.947000000
O    -1.480000000    -3.438000000     3.221000000
C    -2.592000000    -2.904000000     2.533000000
C    -3.159000000    -1.658000000     2.787000000
H    -2.930000000    -1.109000000     3.697000000
C    -4.085000000    -1.126000000     1.890000000
O    -4.428000000     0.115000000     2.215000000
C    -4.520000000    -1.865000000     0.786000000
C    -5.518000000    -1.236000000    -0.141000000
H    -6.009000000    -2.011000000    -0.733000000
C    -4.762000000    -0.352000000    -1.098000000
C    -4.287000000    -0.902000000    -2.312000000
H    -4.571000000    -1.930000000    -2.518000000
H    -6.222000000    -0.579000000     0.374000000
C    -3.893000000    -3.093000000     0.468000000
H    -4.186000000    -3.648000000    -0.420000000
C    -2.924000000    -3.609000000     1.330000000
C    -2.154000000    -4.921000000     0.940000000
H    -2.846000000    -5.510000000     0.334000000
H    -2.018000000    -5.532000000     1.836000000
C    -0.822000000    -4.720000000     0.167000000
C    -0.878000000    -4.790000000    -1.259000000
H    -1.815000000    -4.948000000    -1.786000000
C     0.391000000    -4.576000000     0.825000000
C     1.555000000    -4.430000000     0.124000000
H     2.460000000    -4.362000000     0.723000000
C     1.537000000    -4.396000000    -1.297000000
O     2.692000000    -3.919000000    -1.924000000
C     2.676000000    -2.501000000    -2.240000000
C     3.945000000    -1.676000000    -1.924000000
C     4.563000000    -0.736000000    -2.757000000
H     4.311000000    -0.749000000    -3.815000000
C     4.466000000    -1.840000000    -0.586000000
H     3.867000000    -2.460000000     0.076000000
O     2.339000000    -2.536000000    -3.623000000
H     1.815000000    -2.141000000    -1.658000000
C     0.304000000    -4.545000000    -1.972000000
C     0.240000000    -4.413000000    -3.421000000
H    -0.540000000    -5.049000000    -3.845000000
H     1.113000000    -4.792000000    -3.956000000
C     0.007000000    -2.992000000    -3.880000000
C    -1.302000000    -2.508000000    -4.023000000
H    -2.131000000    -3.197000000    -3.878000000
C     1.113000000    -2.158000000    -4.005000000
C     0.911000000    -0.828000000    -4.392000000
H     1.764000000    -0.154000000    -4.409000000
C    -0.454000000    -0.355000000    -4.660000000
O    -0.550000000     0.987000000    -4.791000000
C    -0.905000000     1.646000000    -3.613000000
C    -0.162000000     3.030000000    -3.435000000
C     1.206000000     3.061000000    -3.835000000
H     1.708000000     2.188000000    -4.244000000
C    -0.836000000     4.143000000    -2.956000000
H    -1.900000000     3.968000000    -2.817000000
O    -2.336000000     1.869000000    -3.653000000
H    -0.579000000     1.061000000    -2.740000000
C    -1.503000000    -1.202000000    -4.355000000
C    -2.962000000    -0.756000000    -4.408000000
H    -3.594000000    -1.601000000    -4.691000000
H    -3.114000000     0.030000000    -5.151000000
C    -3.471000000    -0.174000000    -3.160000000
C    -3.131000000     1.105000000    -2.862000000
C    -3.564000000     1.628000000    -1.630000000
H    -3.410000000     2.690000000    -1.454000000
C    -4.362000000     0.942000000    -0.782000000
O    -4.648000000     1.589000000     0.343000000
C    -3.849000000     1.257000000     1.483000000
H    -2.883000000     0.826000000     1.184000000
C    -3.529000000     2.436000000     2.315000000
C    -3.151000000     2.265000000     3.622000000
H    -3.225000000     1.265000000     4.043000000
C    -3.469000000     3.644000000     1.676000000
H    -3.781000000     3.682000000     0.636000000
C    -3.121000000     4.797000000     2.431000000
O    -2.951000000     6.023000000     1.850000000
C    -2.676000000     4.632000000     3.749000000
H    -2.153000000     5.415000000     4.291000000
C    -2.782000000     3.384000000     4.355000000
O    -2.449000000     3.217000000     5.666000000
C    -2.147000000     1.996000000     6.238000000
C    -0.810000000     1.501000000     6.033000000
H    -0.084000000     2.143000000     5.540000000
C    -3.110000000     1.210000000     7.051000000
H    -4.075000000     1.620000000     7.340000000
C    -2.649000000     0.039000000     7.526000000
H    -3.310000000    -0.530000000     8.175000000
C    -1.298000000    -0.404000000     7.345000000
H    -0.954000000    -1.315000000     7.829000000
C    -0.392000000     0.362000000     6.639000000
O     0.843000000    -0.050000000     6.517000000
C     1.248000000    -1.091000000     5.674000000
C     2.560000000    -1.618000000     5.828000000
H     3.181000000    -1.310000000     6.665000000
C     2.941000000    -2.607000000     4.972000000
O     4.255000000    -3.118000000     5.096000000
C     4.989000000    -3.309000000     3.987000000
C     5.091000000    -2.141000000     3.143000000
H     4.687000000    -1.161000000     3.383000000
C     5.395000000    -4.525000000     3.551000000
H     5.096000000    -5.434000000     4.067000000
C     6.106000000    -4.605000000     2.353000000
H     6.253000000    -5.588000000     1.912000000
C     6.205000000    -3.465000000     1.547000000
H     6.778000000    -3.593000000     0.632000000
C     5.722000000    -2.210000000     1.982000000
O     5.905000000    -1.141000000     1.190000000
C     5.558000000    -1.102000000    -0.169000000
C     6.184000000    -0.276000000    -1.071000000
H     7.091000000     0.253000000    -0.789000000
C     5.686000000    -0.029000000    -2.398000000
O     6.219000000     0.755000000    -3.329000000
C     5.529000000     1.642000000    -4.103000000
C     4.627000000     2.605000000    -3.583000000
H     4.582000000     2.750000000    -2.507000000
C     5.693000000     1.513000000    -5.478000000
H     6.352000000     0.783000000    -5.941000000
C     4.911000000     2.323000000    -6.315000000
H     5.161000000     2.225000000    -7.369000000
C     4.055000000     3.325000000    -5.844000000
H     3.563000000     4.054000000    -6.484000000
C     3.949000000     3.408000000    -4.461000000
O     3.157000000     4.416000000    -3.902000000
C     1.859000000     4.282000000    -3.608000000
C     1.208000000     5.402000000    -3.069000000
H     1.708000000     6.358000000    -2.931000000
C    -0.149000000     5.341000000    -2.773000000
O    -0.762000000     6.459000000    -2.304000000
C    -1.899000000     6.347000000    -1.587000000
C    -3.146000000     6.512000000    -2.221000000
H    -3.192000000     6.629000000    -3.300000000
C    -4.338000000     6.563000000    -1.511000000
H    -5.278000000     6.702000000    -2.040000000
C    -4.271000000     6.432000000    -0.125000000
H    -5.166000000     6.579000000     0.473000000
C    -3.026000000     6.247000000     0.514000000
C    -1.856000000     6.152000000    -0.234000000
H    -0.879000000     6.165000000     0.243000000
C    -0.097000000     2.175000000     1.228000000
H    -0.649000000     3.100000000     1.370000000
C    -0.489000000     1.229000000     0.240000000
H    -1.230000000     1.439000000    -0.526000000
C     0.111000000    -0.028000000     0.183000000
C    -0.459000000    -1.157000000    -0.636000000
H    -1.538000000    -1.262000000    -0.505000000
H    -0.181000000    -0.846000000    -1.645000000
H     0.130000000    -2.052000000    -0.424000000
C     1.091000000    -0.353000000     1.109000000
H     1.621000000    -1.302000000     1.064000000
C     1.496000000     0.607000000     2.038000000
H     2.259000000     0.356000000     2.770000000
C     0.927000000     1.800000000     2.126000000
C     1.350000000     2.767000000     3.212000000
O     2.118000000     2.342000000     4.082000000
O     0.870000000     3.865000000     3.269000000
O     1.311000000     7.927000000     6.255000000
H     1.657000000     8.749000000     6.604000000
H     1.735000000     7.247000000     6.779000000
O     4.788000000     4.472000000     3.080000000
H     4.739000000     3.531000000     3.250000000
H     5.162000000     4.841000000     3.880000000
O     2.558000000     5.729000000     1.608000000
H     1.805000000     5.803000000     2.194000000
H     3.075000000     5.011000000     1.973000000
O    -1.227000000     7.395000000     5.836000000
H    -1.559000000     6.842000000     6.543000000
H    -0.287000000     7.458000000     6.004000000
O     4.392000000     6.754000000    -0.911000000
H     4.267000000     7.233000000    -0.092000000
H     4.007000000     5.893000000    -0.747000000
O     2.189000000     4.742000000     5.582000000
H     2.324000000     5.194000000     4.749000000
H     1.862000000     3.877000000     5.334000000
O     3.421000000     1.884000000     6.637000000
H     2.644000000     1.949000000     7.191000000
H     3.090000000     1.995000000     5.745000000
O     6.235000000     4.387000000     0.051000000
H     5.367000000     4.127000000    -0.259000000
H     6.150000000     4.416000000     1.004000000
O     1.102000000     8.214000000    -0.579000000
H     1.175000000     8.854000000     0.129000000
H     1.522000000     7.426000000    -0.234000000
O     5.420000000     1.065000000     8.491000000
H     4.729000000     1.460000000     7.960000000
H     5.733000000     0.328000000     7.966000000
O     3.905000000     1.414000000     0.382000000
H     4.409000000     1.403000000     1.196000000
H     3.415000000     0.592000000     0.393000000
O     4.522000000     7.716000000     1.894000000
H     4.166000000     6.920000000     2.288000000
H     4.663000000     8.307000000     2.634000000
O     3.767000000     4.040000000    -0.490000000
H     3.919000000     3.203000000    -0.050000000
H     2.818000000     4.161000000    -0.453000000
O     0.051000000     6.288000000     2.908000000
H    -0.897000000     6.350000000     3.028000000
H     0.286000000     5.444000000     3.294000000
O     2.631000000     5.504000000     8.139000000
H     2.813000000     4.767000000     8.723000000
H     2.404000000     5.096000000     7.303000000
O     1.900000000     8.419000000     3.724000000
H     1.772000000     8.193000000     4.645000000
H     1.491000000     7.701000000     3.242000000
O    -1.958000000     5.595000000     7.762000000
H    -2.909000000     5.675000000     7.828000000
H    -1.783000000     4.669000000     7.933000000
O     5.439000000     3.640000000     6.305000000
H     4.657000000     3.146000000     6.550000000
H     5.886000000     3.080000000     5.670000000
O     4.678000000     1.721000000     3.358000000
H     3.863000000     1.624000000     3.850000000
H     5.341000000     1.305000000     3.908000000
