218
-1475.50059
C     2.692000000    -2.556000000     3.568000000
H     2.765000000    -3.544000000     3.121000000
C     1.453000000    -2.037000000     3.823000000
C     1.290000000    -0.853000000     4.536000000
H     0.313000000    -0.377000000     4.514000000
C     0.235000000    -2.643000000     3.162000000
O     0.478000000    -4.001000000     2.695000000
H    -0.026000000    -2.045000000     2.277000000
O    -0.869000000    -2.593000000     3.971000000
C    -2.040000000    -2.337000000     3.333000000
C    -2.527000000    -1.020000000     3.625000000
H    -2.033000000    -0.431000000     4.394000000
C    -3.688000000    -0.628000000     2.944000000
O    -4.130000000     0.683000000     3.152000000
C    -4.309000000    -1.486000000     1.985000000
C    -5.537000000    -0.929000000     1.224000000
H    -6.070000000    -1.796000000     0.829000000
C    -5.038000000    -0.136000000     0.005000000
C    -4.954000000    -0.812000000    -1.245000000
H    -5.108000000    -1.885000000    -1.314000000
H    -6.119000000    -0.239000000     1.838000000
C    -3.825000000    -2.812000000     1.774000000
H    -4.366000000    -3.520000000     1.151000000
C    -2.723000000    -3.237000000     2.469000000
C    -2.293000000    -4.701000000     2.134000000
H    -3.144000000    -5.268000000     1.751000000
H    -1.964000000    -5.284000000     2.996000000
C    -1.124000000    -4.696000000     1.088000000
C    -1.395000000    -4.942000000    -0.274000000
H    -2.347000000    -5.392000000    -0.545000000
C     0.168000000    -4.294000000     1.400000000
C     1.114000000    -4.135000000     0.469000000
H     2.111000000    -3.827000000     0.773000000
C     0.859000000    -4.259000000    -0.840000000
O     1.862000000    -4.069000000    -1.753000000
C     1.849000000    -2.814000000    -2.408000000
C     3.279000000    -2.151000000    -2.467000000
C     3.583000000    -1.053000000    -3.279000000
H     2.814000000    -0.670000000    -3.944000000
C     4.322000000    -2.670000000    -1.614000000
H     4.124000000    -3.458000000    -0.893000000
O     1.227000000    -2.818000000    -3.696000000
H     1.200000000    -2.157000000    -1.810000000
C    -0.411000000    -4.658000000    -1.195000000
C    -0.799000000    -4.696000000    -2.687000000
H    -1.695000000    -5.315000000    -2.772000000
H    -0.116000000    -5.228000000    -3.353000000
C    -1.124000000    -3.268000000    -3.185000000
C    -2.413000000    -2.839000000    -3.138000000
H    -3.119000000    -3.501000000    -2.643000000
C    -0.152000000    -2.477000000    -3.716000000
C    -0.487000000    -1.225000000    -4.296000000
H     0.352000000    -0.711000000    -4.758000000
C    -1.799000000    -0.771000000    -4.338000000
O    -2.009000000     0.503000000    -4.690000000
C    -1.934000000     1.491000000    -3.611000000
C    -1.007000000     2.673000000    -3.915000000
C     0.082000000     2.517000000    -4.792000000
H     0.264000000     1.582000000    -5.316000000
C    -1.166000000     3.949000000    -3.339000000
H    -2.077000000     4.124000000    -2.772000000
O    -3.274000000     1.846000000    -3.213000000
H    -1.465000000     0.926000000    -2.791000000
C    -2.770000000    -1.606000000    -3.749000000
C    -4.205000000    -1.012000000    -3.610000000
H    -4.922000000    -1.833000000    -3.543000000
H    -4.577000000    -0.445000000    -4.466000000
C    -4.397000000    -0.178000000    -2.328000000
C    -3.951000000     1.103000000    -2.238000000
C    -4.071000000     1.858000000    -1.054000000
H    -3.696000000     2.873000000    -0.945000000
C    -4.651000000     1.250000000     0.016000000
O    -4.568000000     2.015000000     1.200000000
C    -3.530000000     1.603000000     2.194000000
H    -2.718000000     1.057000000     1.691000000
C    -2.859000000     2.815000000     2.903000000
C    -2.688000000     2.862000000     4.296000000
H    -3.109000000     2.128000000     4.978000000
C    -2.414000000     3.851000000     2.054000000
H    -2.634000000     3.851000000     0.989000000
C    -1.654000000     4.882000000     2.622000000
O    -1.213000000     5.892000000     1.847000000
C    -1.441000000     4.884000000     3.986000000
H    -0.789000000     5.626000000     4.440000000
C    -1.904000000     3.907000000     4.812000000
O    -1.554000000     3.872000000     6.211000000
C    -0.739000000     2.848000000     6.690000000
C     0.393000000     2.458000000     5.934000000
H     0.691000000     3.028000000     5.058000000
C    -1.127000000     2.076000000     7.802000000
H    -1.952000000     2.400000000     8.430000000
C    -0.353000000     0.978000000     8.192000000
H    -0.571000000     0.396000000     9.084000000
C     0.821000000     0.662000000     7.503000000
H     1.426000000    -0.175000000     7.842000000
C     1.180000000     1.365000000     6.364000000
O     2.310000000     0.946000000     5.678000000
C     2.451000000    -0.193000000     5.004000000
C     3.673000000    -0.576000000     4.581000000
H     4.560000000    -0.072000000     4.955000000
C     3.840000000    -1.789000000     3.869000000
O     5.108000000    -2.370000000     3.865000000
C     5.559000000    -3.102000000     2.759000000
C     5.639000000    -2.431000000     1.497000000
H     5.296000000    -1.408000000     1.370000000
C     5.773000000    -4.437000000     2.839000000
H     5.582000000    -4.875000000     3.816000000
C     6.349000000    -5.147000000     1.750000000
H     6.547000000    -6.214000000     1.809000000
C     6.609000000    -4.433000000     0.543000000
H     7.063000000    -4.978000000    -0.281000000
C     6.266000000    -3.107000000     0.430000000
O     6.584000000    -2.423000000    -0.761000000
C     5.593000000    -2.085000000    -1.657000000
C     5.852000000    -1.055000000    -2.534000000
H     6.829000000    -0.582000000    -2.589000000
C     4.847000000    -0.498000000    -3.316000000
O     5.193000000     0.534000000    -4.197000000
C     4.339000000     0.972000000    -5.256000000
C     3.469000000     2.044000000    -5.064000000
H     3.482000000     2.626000000    -4.145000000
C     4.384000000     0.229000000    -6.437000000
H     5.184000000    -0.504000000    -6.511000000
C     3.587000000     0.601000000    -7.511000000
H     3.668000000     0.010000000    -8.420000000
C     2.737000000     1.662000000    -7.385000000
H     2.131000000     1.951000000    -8.240000000
C     2.650000000     2.345000000    -6.155000000
O     1.849000000     3.493000000    -6.045000000
C     0.965000000     3.606000000    -4.987000000
C     0.765000000     4.887000000    -4.404000000
H     1.389000000     5.770000000    -4.519000000
C    -0.340000000     5.023000000    -3.591000000
O    -0.633000000     6.256000000    -2.975000000
C    -1.408000000     6.437000000    -1.819000000
C    -2.721000000     6.854000000    -1.959000000
H    -3.035000000     7.163000000    -2.953000000
C    -3.501000000     7.128000000    -0.826000000
H    -4.450000000     7.598000000    -1.070000000
C    -3.004000000     6.802000000     0.471000000
H    -3.653000000     6.956000000     1.330000000
C    -1.728000000     6.226000000     0.590000000
C    -0.944000000     6.123000000    -0.563000000
H     0.047000000     5.681000000    -0.626000000
C     0.370000000     2.400000000     0.817000000
H     0.217000000     3.473000000     0.903000000
C    -0.563000000     1.529000000     0.246000000
H    -1.598000000     1.791000000     0.043000000
C    -0.158000000     0.139000000     0.208000000
C    -1.060000000    -0.942000000    -0.401000000
H    -2.024000000    -0.439000000    -0.293000000
H    -0.927000000    -1.221000000    -1.448000000
H    -1.099000000    -1.909000000     0.105000000
C     1.156000000    -0.251000000     0.327000000
H     1.381000000    -1.279000000     0.055000000
C     2.052000000     0.614000000     0.864000000
H     3.090000000     0.358000000     1.059000000
C     1.684000000     1.956000000     1.057000000
C     2.562000000     2.980000000     1.737000000
O     3.678000000     2.622000000     2.024000000
O     2.047000000     4.005000000     2.112000000
O     1.618000000     6.114000000     5.737000000
H     1.939000000     7.011000000     5.836000000
H     2.251000000     5.697000000     5.153000000
O     4.529000000     5.522000000    -2.315000000
H     4.071000000     5.621000000    -1.480000000
H     5.440000000     5.358000000    -2.070000000
O     7.207000000     0.732000000     3.501000000
H     7.224000000     0.045000000     4.167000000
H     7.985000000     0.567000000     2.967000000
O     2.662000000     9.609000000     2.687000000
H     3.394000000     9.956000000     3.196000000
H     2.838000000     8.670000000     2.622000000
O     3.366000000     4.744000000     4.344000000
H     4.112000000     4.157000000     4.222000000
H     2.795000000     4.564000000     3.597000000
O     5.530000000     1.018000000     1.114000000
H     4.806000000     1.576000000     1.397000000
H     5.946000000     0.734000000     1.928000000
O     5.010000000     8.996000000     0.294000000
H     4.118000000     8.650000000     0.299000000
H     5.115000000     9.376000000    -0.578000000
O     6.311000000     1.888000000    -1.355000000
H     5.821000000     1.451000000    -2.052000000
H     5.836000000     1.667000000    -0.554000000
O     1.618000000     6.574000000     2.434000000
H     0.689000000     6.474000000     2.644000000
H     1.911000000     5.690000000     2.213000000
O     3.865000000     5.595000000     0.479000000
H     4.750000000     5.493000000     0.829000000
H     3.341000000     4.957000000     0.963000000
O     2.719000000     4.915000000     8.017000000
H     3.198000000     4.123000000     7.775000000
H     2.235000000     5.153000000     7.226000000
O     4.146000000     2.595000000     7.939000000
H     4.736000000     2.282000000     8.625000000
H     4.155000000     1.900000000     7.281000000
O     6.023000000     5.281000000     1.890000000
H     5.546000000     4.650000000     2.429000000
H     6.945000000     5.111000000     2.083000000
O     2.348000000     7.928000000    -0.032000000
H     2.880000000     7.137000000     0.058000000
H     1.693000000     7.857000000     0.662000000
O    -0.328000000     8.061000000     3.861000000
H     0.530000000     7.657000000     3.990000000
H    -0.534000000     8.460000000     4.707000000
O     3.675000000     8.262000000     5.869000000
H     4.259000000     7.777000000     5.285000000
H     4.181000000     8.375000000     6.674000000
O     5.461000000     3.183000000     3.812000000
H     6.083000000     2.509000000     4.086000000
H     4.849000000     2.723000000     3.237000000
O     5.429000000     6.911000000     4.557000000
H     5.228000000     6.133000000     4.037000000
H     6.268000000     6.711000000     4.972000000
O     7.511000000     4.549000000    -2.484000000
H     7.148000000     3.805000000    -2.004000000
H     7.478000000     4.281000000    -3.402000000
