218
-1467.25183
C     3.475000000    -2.039000000     2.727000000
H     3.608000000    -2.613000000     1.814000000
C     2.347000000    -2.033000000     3.462000000
C     2.256000000    -1.238000000     4.596000000
H     1.322000000    -1.096000000     5.135000000
C     1.187000000    -2.879000000     2.953000000
O     1.603000000    -4.125000000     2.254000000
H     0.596000000    -2.223000000     2.298000000
O     0.237000000    -3.257000000     4.037000000
C    -1.100000000    -2.944000000     3.689000000
C    -1.609000000    -1.700000000     3.949000000
H    -0.979000000    -0.961000000     4.436000000
C    -2.840000000    -1.358000000     3.428000000
O    -3.249000000    -0.094000000     3.690000000
C    -3.557000000    -2.182000000     2.519000000
C    -4.925000000    -1.837000000     1.912000000
H    -5.520000000    -2.717000000     1.662000000
C    -4.780000000    -1.067000000     0.643000000
C    -4.742000000    -1.663000000    -0.633000000
H    -4.713000000    -2.740000000    -0.775000000
H    -5.604000000    -1.382000000     2.636000000
C    -3.016000000    -3.438000000     2.289000000
H    -3.579000000    -4.231000000     1.804000000
C    -1.746000000    -3.724000000     2.708000000
C    -1.088000000    -5.066000000     2.231000000
H    -1.826000000    -5.824000000     1.961000000
H    -0.481000000    -5.592000000     2.971000000
C    -0.348000000    -4.794000000     0.935000000
C    -0.916000000    -4.909000000    -0.359000000
H    -1.961000000    -5.149000000    -0.537000000
C     0.987000000    -4.359000000     1.043000000
C     1.736000000    -4.090000000    -0.056000000
H     2.747000000    -3.698000000     0.022000000
C     1.219000000    -4.300000000    -1.321000000
O     2.076000000    -4.057000000    -2.412000000
C     1.863000000    -2.777000000    -3.017000000
C     3.187000000    -2.157000000    -3.410000000
C     3.271000000    -1.092000000    -4.301000000
H     2.361000000    -0.780000000    -4.807000000
C     4.401000000    -2.542000000    -2.796000000
H     4.439000000    -3.359000000    -2.079000000
O     0.970000000    -2.833000000    -4.243000000
H     1.276000000    -2.143000000    -2.336000000
C    -0.159000000    -4.580000000    -1.498000000
C    -0.706000000    -4.832000000    -2.923000000
H    -1.453000000    -5.613000000    -3.075000000
H     0.137000000    -5.181000000    -3.522000000
C    -1.225000000    -3.563000000    -3.459000000
C    -2.540000000    -3.257000000    -3.231000000
H    -3.187000000    -3.995000000    -2.765000000
C    -0.363000000    -2.573000000    -3.982000000
C    -0.806000000    -1.275000000    -4.235000000
H    -0.221000000    -0.508000000    -4.736000000
C    -2.146000000    -0.959000000    -3.924000000
O    -2.502000000     0.338000000    -4.113000000
C    -2.635000000     1.128000000    -2.893000000
C    -1.928000000     2.480000000    -3.049000000
C    -0.642000000     2.457000000    -3.503000000
H    -0.131000000     1.526000000    -3.734000000
C    -2.504000000     3.666000000    -2.538000000
H    -3.522000000     3.604000000    -2.162000000
O    -4.042000000     1.306000000    -2.659000000
H    -2.184000000     0.604000000    -2.037000000
C    -3.025000000    -1.958000000    -3.528000000
C    -4.474000000    -1.515000000    -3.085000000
H    -5.098000000    -2.404000000    -3.195000000
H    -4.924000000    -0.844000000    -3.819000000
C    -4.614000000    -0.839000000    -1.769000000
C    -4.534000000     0.521000000    -1.592000000
C    -4.572000000     1.119000000    -0.359000000
H    -4.349000000     2.182000000    -0.316000000
C    -4.754000000     0.326000000     0.750000000
O    -4.602000000     0.968000000     1.981000000
C    -3.266000000     0.913000000     2.577000000
H    -2.584000000     0.477000000     1.833000000
C    -2.711000000     2.273000000     3.029000000
C    -1.430000000     2.323000000     3.684000000
H    -0.944000000     1.396000000     3.976000000
C    -3.306000000     3.479000000     2.685000000
H    -4.272000000     3.354000000     2.202000000
C    -2.776000000     4.712000000     3.018000000
O    -3.333000000     5.916000000     2.638000000
C    -1.551000000     4.801000000     3.712000000
H    -1.126000000     5.773000000     3.948000000
C    -0.943000000     3.578000000     4.026000000
O     0.248000000     3.743000000     4.638000000
C     0.730000000     2.861000000     5.652000000
C     1.759000000     1.927000000     5.480000000
H     2.204000000     1.774000000     4.500000000
C     0.141000000     2.906000000     6.911000000
H    -0.673000000     3.595000000     7.121000000
C     0.589000000     2.160000000     7.962000000
H     0.130000000     2.392000000     8.919000000
C     1.722000000     1.351000000     7.732000000
H     2.135000000     0.746000000     8.536000000
C     2.213000000     1.170000000     6.512000000
O     3.237000000     0.273000000     6.261000000
C     3.322000000    -0.459000000     5.046000000
C     4.528000000    -0.461000000     4.309000000
H     5.327000000     0.187000000     4.659000000
C     4.534000000    -1.200000000     3.112000000
O     5.651000000    -1.027000000     2.361000000
C     6.149000000    -1.866000000     1.433000000
C     6.321000000    -1.471000000     0.110000000
H     6.119000000    -0.443000000    -0.181000000
C     6.455000000    -3.202000000     1.774000000
H     6.433000000    -3.508000000     2.817000000
C     7.055000000    -4.090000000     0.810000000
H     7.325000000    -5.106000000     1.087000000
C     7.069000000    -3.675000000    -0.490000000
H     7.476000000    -4.324000000    -1.261000000
C     6.660000000    -2.420000000    -0.871000000
O     6.676000000    -2.087000000    -2.202000000
C     5.581000000    -1.850000000    -2.943000000
C     5.651000000    -0.895000000    -3.927000000
H     6.533000000    -0.268000000    -4.023000000
C     4.476000000    -0.424000000    -4.584000000
O     4.623000000     0.648000000    -5.426000000
C     3.537000000     1.450000000    -5.671000000
C     2.964000000     2.044000000    -4.583000000
H     3.199000000     1.844000000    -3.541000000
C     3.110000000     1.623000000    -7.002000000
H     3.611000000     1.111000000    -7.820000000
C     2.047000000     2.478000000    -7.267000000
H     1.650000000     2.553000000    -8.276000000
C     1.393000000     3.142000000    -6.172000000
H     0.483000000     3.677000000    -6.431000000
C     1.867000000     2.842000000    -4.824000000
O     1.387000000     3.488000000    -3.745000000
C     0.048000000     3.601000000    -3.511000000
C    -0.504000000     4.793000000    -3.074000000
H     0.083000000     5.705000000    -3.153000000
C    -1.822000000     4.838000000    -2.641000000
O    -2.368000000     6.055000000    -2.210000000
C    -3.182000000     6.249000000    -1.144000000
C    -4.243000000     7.177000000    -1.335000000
H    -4.554000000     7.400000000    -2.352000000
C    -5.108000000     7.448000000    -0.283000000
H    -6.003000000     7.991000000    -0.575000000
C    -4.766000000     6.951000000     0.990000000
H    -5.369000000     7.221000000     1.852000000
C    -3.651000000     6.172000000     1.231000000
C    -2.895000000     5.767000000     0.136000000
H    -2.014000000     5.205000000     0.434000000
C     0.179000000     2.101000000     0.669000000
H    -0.242000000     3.075000000     0.906000000
C    -0.645000000     1.009000000     0.237000000
H    -1.712000000     1.198000000     0.148000000
C    -0.036000000    -0.218000000     0.024000000
C    -0.867000000    -1.367000000    -0.394000000
H    -0.410000000    -1.869000000    -1.250000000
H    -1.134000000    -2.067000000     0.400000000
H    -1.833000000    -1.070000000    -0.807000000
C     1.311000000    -0.399000000     0.375000000
H     1.719000000    -1.403000000     0.293000000
C     2.062000000     0.676000000     0.831000000
H     3.054000000     0.545000000     1.255000000
C     1.510000000     1.913000000     0.980000000
C     2.246000000     2.998000000     1.775000000
O     3.318000000     2.765000000     2.289000000
O     1.883000000     4.150000000     1.573000000
O     4.319000000     6.319000000     5.482000000
H     5.131000000     6.306000000     5.989000000
H     4.208000000     5.417000000     5.183000000
O     7.319000000     6.389000000     1.753000000
H     7.697000000     5.623000000     2.186000000
H     8.073000000     6.940000000     1.542000000
O     7.078000000     5.161000000    -0.791000000
H     6.664000000     4.301000000    -0.722000000
H     6.862000000     5.597000000     0.034000000
O     1.277000000     6.643000000     2.628000000
H     1.438000000     5.721000000     2.425000000
H     1.032000000     6.646000000     3.553000000
O     4.405000000     5.121000000     1.043000000
H     3.613000000     4.698000000     1.376000000
H     4.606000000     5.795000000     1.692000000
O     6.377000000     2.634000000    -0.192000000
H     7.154000000     2.079000000    -0.128000000
H     6.167000000     2.858000000     0.714000000
O    -0.935000000     8.539000000     2.476000000
H    -1.302000000     8.709000000     1.609000000
H    -0.521000000     7.680000000     2.397000000
O     0.663000000     5.779000000    -0.510000000
H     0.620000000     4.969000000    -1.018000000
H     0.806000000     5.490000000     0.391000000
O     8.083000000     4.005000000     3.071000000
H     8.870000000     3.591000000     2.716000000
H     7.366000000     3.439000000     2.788000000
O     2.550000000     9.309000000     1.702000000
H     2.732000000     8.395000000     1.917000000
H     2.973000000     9.444000000     0.853000000
O     6.776000000     2.339000000     5.565000000
H     6.283000000     3.091000000     5.893000000
H     6.486000000     2.240000000     4.658000000
O     1.843000000     7.220000000     5.493000000
H     2.678000000     6.798000000     5.291000000
H     1.436000000     6.649000000     6.144000000
O     3.103000000     7.010000000    -0.383000000
H     2.157000000     6.883000000    -0.313000000
H     3.480000000     6.204000000    -0.030000000
O     0.480000000     8.275000000    -2.111000000
H     0.175000000     8.896000000    -1.449000000
H     0.454000000     7.425000000    -1.672000000
O     6.077000000     2.090000000     2.631000000
H     6.189000000     1.186000000     2.335000000
H     5.222000000     2.349000000     2.288000000
O     5.413000000     8.433000000    -0.802000000
H     6.005000000     7.955000000    -0.221000000
H     4.547000000     8.071000000    -0.612000000
O     4.246000000     3.625000000     4.580000000
H     3.612000000     3.391000000     3.902000000
H     4.428000000     2.802000000     5.033000000
O     7.732000000     6.013000000     4.959000000
H     7.636000000     5.309000000     4.318000000
H     7.304000000     5.680000000     5.747000000
O     6.270000000     2.500000000    -3.554000000
H     6.472000000     2.274000000    -2.646000000
H     5.877000000     3.371000000    -3.503000000
