218
-1463.82166
C     3.496000000    -2.848000000     3.594000000
H     3.735000000    -3.555000000     2.803000000
C     2.194000000    -2.537000000     4.070000000
C     2.139000000    -1.505000000     4.988000000
H     1.171000000    -1.061000000     5.209000000
C     0.897000000    -3.009000000     3.367000000
O     0.998000000    -4.303000000     2.783000000
H     0.598000000    -2.280000000     2.600000000
O    -0.236000000    -2.960000000     4.187000000
C    -1.436000000    -2.570000000     3.644000000
C    -1.751000000    -1.200000000     3.763000000
H    -1.203000000    -0.575000000     4.464000000
C    -2.974000000    -0.781000000     3.155000000
O    -3.225000000     0.540000000     3.267000000
C    -3.755000000    -1.585000000     2.320000000
C    -5.020000000    -0.964000000     1.768000000
H    -5.812000000    -1.707000000     1.655000000
C    -4.821000000    -0.268000000     0.449000000
C    -4.908000000    -0.949000000    -0.768000000
H    -5.211000000    -1.992000000    -0.804000000
H    -5.541000000    -0.247000000     2.405000000
C    -3.361000000    -2.874000000     2.146000000
H    -3.923000000    -3.466000000     1.428000000
C    -2.253000000    -3.386000000     2.841000000
C    -1.763000000    -4.837000000     2.525000000
H    -2.665000000    -5.446000000     2.430000000
H    -1.268000000    -5.259000000     3.402000000
C    -0.846000000    -4.805000000     1.344000000
C    -1.393000000    -4.743000000     0.052000000
H    -2.459000000    -4.948000000    -0.011000000
C     0.518000000    -4.537000000     1.505000000
C     1.338000000    -4.377000000     0.392000000
H     2.396000000    -4.137000000     0.466000000
C     0.782000000    -4.376000000    -0.831000000
O     1.642000000    -4.142000000    -1.868000000
C     1.630000000    -2.875000000    -2.489000000
C     3.081000000    -2.481000000    -2.764000000
C     3.248000000    -1.389000000    -3.746000000
H     2.347000000    -1.190000000    -4.320000000
C     4.188000000    -2.813000000    -2.000000000
H     4.077000000    -3.513000000    -1.176000000
O     0.895000000    -2.952000000    -3.652000000
H     1.278000000    -2.135000000    -1.755000000
C    -0.563000000    -4.554000000    -1.004000000
C    -1.118000000    -4.644000000    -2.466000000
H    -2.038000000    -5.232000000    -2.479000000
H    -0.502000000    -5.249000000    -3.135000000
C    -1.450000000    -3.325000000    -3.091000000
C    -2.747000000    -2.891000000    -3.064000000
H    -3.486000000    -3.500000000    -2.550000000
C    -0.470000000    -2.558000000    -3.683000000
C    -0.773000000    -1.388000000    -4.227000000
H    -0.094000000    -0.781000000    -4.820000000
C    -2.102000000    -0.849000000    -4.135000000
O    -2.431000000     0.376000000    -4.614000000
C    -2.569000000     1.415000000    -3.617000000
C    -1.844000000     2.736000000    -3.863000000
C    -0.597000000     2.767000000    -4.545000000
H    -0.180000000     1.804000000    -4.828000000
C    -2.299000000     3.929000000    -3.306000000
H    -3.196000000     4.013000000    -2.699000000
O    -3.917000000     1.677000000    -3.138000000
H    -2.086000000     1.080000000    -2.687000000
C    -3.111000000    -1.645000000    -3.592000000
C    -4.500000000    -1.117000000    -3.336000000
H    -5.169000000    -1.971000000    -3.216000000
H    -4.815000000    -0.439000000    -4.132000000
C    -4.526000000    -0.337000000    -1.983000000
C    -4.296000000     1.072000000    -2.017000000
C    -4.202000000     1.743000000    -0.780000000
H    -3.862000000     2.769000000    -0.670000000
C    -4.541000000     1.121000000     0.390000000
O    -4.233000000     1.807000000     1.562000000
C    -3.004000000     1.446000000     2.163000000
H    -2.420000000     0.908000000     1.402000000
C    -2.236000000     2.719000000     2.568000000
C    -1.027000000     2.545000000     3.348000000
H    -0.797000000     1.538000000     3.688000000
C    -2.433000000     3.965000000     1.944000000
H    -3.295000000     4.107000000     1.297000000
C    -1.629000000     5.078000000     2.243000000
O    -1.765000000     6.336000000     1.696000000
C    -0.602000000     4.868000000     3.161000000
H    -0.046000000     5.766000000     3.418000000
C    -0.310000000     3.671000000     3.724000000
O     0.755000000     3.570000000     4.560000000
C     0.880000000     2.680000000     5.563000000
C     1.844000000     1.674000000     5.509000000
H     2.441000000     1.472000000     4.624000000
C     0.035000000     2.771000000     6.714000000
H    -0.737000000     3.534000000     6.767000000
C     0.155000000     1.820000000     7.753000000
H    -0.590000000     1.768000000     8.543000000
C     1.222000000     0.955000000     7.774000000
H     1.398000000     0.338000000     8.652000000
C     2.101000000     0.932000000     6.629000000
O     3.143000000     0.121000000     6.508000000
C     3.207000000    -0.828000000     5.497000000
C     4.489000000    -1.228000000     5.082000000
H     5.324000000    -0.700000000     5.535000000
C     4.645000000    -2.193000000     4.052000000
O     5.897000000    -2.396000000     3.469000000
C     6.056000000    -2.996000000     2.245000000
C     6.134000000    -2.189000000     1.077000000
H     5.951000000    -1.119000000     1.028000000
C     6.503000000    -4.326000000     2.242000000
H     6.724000000    -4.819000000     3.185000000
C     6.810000000    -4.969000000     1.056000000
H     7.120000000    -6.011000000     1.023000000
C     6.733000000    -4.230000000    -0.136000000
H     6.950000000    -4.725000000    -1.079000000
C     6.401000000    -2.866000000    -0.124000000
O     6.472000000    -2.221000000    -1.319000000
C     5.351000000    -1.967000000    -2.088000000
C     5.465000000    -0.900000000    -2.934000000
H     6.379000000    -0.318000000    -2.855000000
C     4.415000000    -0.628000000    -3.853000000
O     4.503000000     0.501000000    -4.626000000
C     3.479000000     0.964000000    -5.408000000
C     2.955000000     2.213000000    -5.004000000
H     3.247000000     2.536000000    -4.008000000
C     2.915000000     0.314000000    -6.516000000
H     3.280000000    -0.680000000    -6.764000000
C     1.940000000     0.933000000    -7.300000000
H     1.707000000     0.386000000    -8.210000000
C     1.470000000     2.204000000    -6.923000000
H     0.720000000     2.757000000    -7.483000000
C     1.970000000     2.812000000    -5.733000000
O     1.316000000     3.915000000    -5.220000000
C     0.115000000     3.919000000    -4.653000000
C    -0.438000000     5.130000000    -4.121000000
H     0.143000000     6.035000000    -4.282000000
C    -1.632000000     5.127000000    -3.447000000
O    -2.206000000     6.370000000    -3.067000000
C    -2.790000000     6.572000000    -1.831000000
C    -3.945000000     7.347000000    -1.730000000
H    -4.378000000     7.596000000    -2.696000000
C    -4.481000000     7.657000000    -0.480000000
H    -5.311000000     8.352000000    -0.385000000
C    -3.746000000     7.276000000     0.671000000
H    -4.139000000     7.540000000     1.649000000
C    -2.554000000     6.578000000     0.609000000
C    -2.113000000     6.237000000    -0.714000000
H    -1.174000000     5.709000000    -0.859000000
C     0.693000000     2.449000000    -0.100000000
H     0.324000000     3.444000000    -0.333000000
C    -0.334000000     1.449000000    -0.240000000
H    -1.300000000     1.681000000    -0.682000000
C    -0.065000000     0.114000000     0.189000000
C    -0.985000000    -1.021000000    -0.145000000
H    -1.086000000    -1.041000000    -1.232000000
H    -0.776000000    -2.006000000     0.276000000
H    -1.954000000    -0.704000000     0.246000000
C     1.125000000    -0.165000000     0.806000000
H     1.209000000    -1.160000000     1.237000000
C     2.143000000     0.768000000     0.898000000
H     3.040000000     0.530000000     1.465000000
C     1.880000000     2.108000000     0.482000000
C     2.859000000     3.228000000     0.661000000
O     3.920000000     3.058000000     1.228000000
O     2.636000000     4.414000000     0.504000000
O     1.031000000     8.616000000     2.131000000
H     1.558000000     7.817000000     2.113000000
H     0.806000000     8.734000000     3.053000000
O     7.824000000     0.409000000    -0.567000000
H     8.205000000     0.812000000     0.213000000
H     8.123000000    -0.499000000    -0.539000000
O     8.323000000     1.347000000     1.991000000
H     7.409000000     1.629000000     2.029000000
H     8.418000000     0.743000000     2.727000000
O     7.966000000     6.497000000     0.630000000
H     7.319000000     5.844000000     0.362000000
H     8.317000000     6.837000000    -0.192000000
O     5.983000000     2.827000000    -3.905000000
H     5.661000000     2.559000000    -3.044000000
H     5.475000000     3.609000000    -4.119000000
O     2.436000000     6.365000000     2.295000000
H     2.374000000     5.526000000     1.839000000
H     2.644000000     6.131000000     3.200000000
O     5.407000000     5.305000000     0.330000000
H     4.919000000     4.560000000     0.681000000
H     5.020000000     5.460000000    -0.532000000
O     8.404000000     4.220000000     4.087000000
H     8.920000000     4.051000000     3.299000000
H     7.502000000     4.283000000     3.775000000
O     5.303000000     2.286000000    -1.204000000
H     6.071000000     2.046000000    -0.685000000
H     4.658000000     2.573000000    -0.557000000
O    -0.013000000     8.772000000    -0.493000000
H    -0.442000000     7.920000000    -0.570000000
H     0.507000000     8.708000000     0.308000000
O     2.785000000     6.130000000    -1.485000000
H     2.386000000     6.876000000    -1.037000000
H     2.846000000     5.451000000    -0.813000000
O     4.446000000     7.960000000     0.985000000
H     3.685000000     7.496000000     1.334000000
H     5.088000000     7.271000000     0.815000000
O     5.437000000     1.829000000     5.281000000
H     6.279000000     1.906000000     5.731000000
H     4.797000000     2.159000000     5.913000000
O     3.405000000     6.762000000     5.397000000
H     3.768000000     6.936000000     6.265000000
H     4.070000000     6.229000000     4.961000000
O     4.370000000     5.250000000    -3.495000000
H     3.707000000     5.539000000    -2.868000000
H     5.187000000     5.629000000    -3.170000000
O     5.752000000     1.705000000     2.458000000
H     5.499000000     1.712000000     3.382000000
H     5.145000000     2.314000000     2.039000000
O     3.973000000     9.268000000    -1.214000000
H     4.734000000     9.848000000    -1.195000000
H     3.999000000     8.810000000    -0.374000000
O     3.682000000     4.062000000     3.750000000
H     3.635000000     3.600000000     2.913000000
H     2.986000000     3.672000000     4.278000000
O     6.030000000     5.184000000     3.319000000
H     5.972000000     5.605000000     2.461000000
H     5.200000000     4.717000000     3.413000000
