218
-1466.45702
C     1.409000000    -3.766000000     3.437000000
H     1.360000000    -4.590000000     2.730000000
C     0.400000000    -2.867000000     3.660000000
C     0.510000000    -1.939000000     4.694000000
H    -0.256000000    -1.190000000     4.875000000
C    -0.940000000    -2.859000000     2.874000000
O    -1.325000000    -4.158000000     2.290000000
H    -0.756000000    -2.184000000     2.024000000
O    -1.967000000    -2.353000000     3.647000000
C    -2.841000000    -1.453000000     3.094000000
C    -2.777000000    -0.158000000     3.509000000
H    -1.938000000     0.096000000     4.152000000
C    -3.473000000     0.839000000     2.848000000
O    -3.099000000     2.130000000     3.074000000
C    -4.446000000     0.572000000     1.858000000
C    -5.216000000     1.626000000     1.081000000
H    -6.135000000     1.118000000     0.781000000
C    -4.287000000     2.002000000    -0.104000000
C    -4.522000000     1.409000000    -1.301000000
H    -5.347000000     0.702000000    -1.308000000
H    -5.491000000     2.406000000     1.795000000
C    -4.542000000    -0.747000000     1.495000000
H    -5.307000000    -1.024000000     0.774000000
C    -3.837000000    -1.820000000     2.151000000
C    -4.025000000    -3.255000000     1.708000000
H    -5.054000000    -3.506000000     1.444000000
H    -3.757000000    -3.899000000     2.548000000
C    -3.074000000    -3.687000000     0.641000000
C    -3.467000000    -3.523000000    -0.703000000
H    -4.527000000    -3.357000000    -0.880000000
C    -1.759000000    -4.134000000     0.988000000
C    -0.907000000    -4.514000000    -0.098000000
H     0.062000000    -4.923000000     0.178000000
C    -1.249000000    -4.322000000    -1.358000000
O    -0.192000000    -4.469000000    -2.188000000
C     0.370000000    -3.270000000    -2.780000000
C     1.891000000    -3.398000000    -2.763000000
C     2.610000000    -3.281000000    -3.971000000
H     2.063000000    -3.318000000    -4.909000000
C     2.649000000    -3.466000000    -1.612000000
H     2.084000000    -3.569000000    -0.689000000
O    -0.181000000    -3.001000000    -4.047000000
H     0.006000000    -2.476000000    -2.112000000
C    -2.531000000    -3.832000000    -1.736000000
C    -2.890000000    -3.692000000    -3.219000000
H    -3.954000000    -3.904000000    -3.344000000
H    -2.479000000    -4.547000000    -3.761000000
C    -2.468000000    -2.343000000    -3.714000000
C    -3.397000000    -1.312000000    -3.654000000
H    -4.424000000    -1.507000000    -3.358000000
C    -1.153000000    -2.077000000    -4.101000000
C    -0.809000000    -0.825000000    -4.605000000
H     0.165000000    -0.655000000    -5.056000000
C    -1.751000000     0.184000000    -4.459000000
O    -1.229000000     1.471000000    -4.795000000
C    -0.932000000     2.161000000    -3.577000000
C     0.439000000     2.824000000    -3.612000000
C     1.605000000     2.102000000    -3.851000000
H     1.588000000     1.048000000    -4.114000000
C     0.518000000     4.182000000    -3.181000000
H    -0.376000000     4.725000000    -2.884000000
O    -2.028000000     3.088000000    -3.372000000
H    -0.859000000     1.396000000    -2.790000000
C    -3.055000000    -0.029000000    -3.956000000
C    -4.037000000     1.026000000    -3.715000000
H    -5.019000000     0.565000000    -3.843000000
H    -4.041000000     1.793000000    -4.493000000
C    -3.804000000     1.759000000    -2.428000000
C    -2.914000000     2.866000000    -2.348000000
C    -2.734000000     3.506000000    -1.111000000
H    -1.978000000     4.273000000    -0.962000000
C    -3.411000000     3.111000000     0.018000000
O    -3.153000000     3.675000000     1.280000000
C    -2.329000000     2.839000000     2.127000000
H    -1.916000000     2.090000000     1.435000000
C    -1.248000000     3.550000000     2.859000000
C    -0.778000000     3.102000000     4.097000000
H    -1.238000000     2.210000000     4.515000000
C    -0.681000000     4.712000000     2.296000000
H    -1.070000000     5.053000000     1.340000000
C     0.363000000     5.361000000     2.915000000
O     1.076000000     6.401000000     2.245000000
C     0.840000000     4.845000000     4.137000000
H     1.658000000     5.334000000     4.660000000
C     0.219000000     3.790000000     4.777000000
O     0.579000000     3.447000000     6.020000000
C     0.361000000     2.214000000     6.557000000
C     1.302000000     1.169000000     6.445000000
H     2.267000000     1.218000000     5.946000000
C    -0.835000000     1.953000000     7.154000000
H    -1.486000000     2.797000000     7.365000000
C    -1.268000000     0.669000000     7.482000000
H    -2.251000000     0.539000000     7.926000000
C    -0.390000000    -0.409000000     7.229000000
H    -0.654000000    -1.385000000     7.626000000
C     0.875000000    -0.160000000     6.755000000
O     1.714000000    -1.148000000     6.623000000
C     1.613000000    -2.065000000     5.630000000
C     2.596000000    -3.044000000     5.358000000
H     3.496000000    -3.147000000     5.959000000
C     2.466000000    -3.880000000     4.308000000
O     3.518000000    -4.798000000     4.118000000
C     3.988000000    -5.023000000     2.818000000
C     4.096000000    -3.993000000     1.856000000
H     3.839000000    -2.964000000     2.096000000
C     4.444000000    -6.281000000     2.584000000
H     4.527000000    -6.945000000     3.441000000
C     4.954000000    -6.619000000     1.339000000
H     5.362000000    -7.600000000     1.110000000
C     5.051000000    -5.684000000     0.318000000
H     5.523000000    -5.909000000    -0.635000000
C     4.582000000    -4.371000000     0.604000000
O     4.737000000    -3.378000000    -0.368000000
C     4.062000000    -3.368000000    -1.552000000
C     4.750000000    -3.180000000    -2.782000000
H     5.836000000    -3.125000000    -2.777000000
C     3.977000000    -3.052000000    -3.936000000
O     4.565000000    -2.594000000    -5.113000000
C     4.288000000    -1.322000000    -5.419000000
C     4.334000000    -0.361000000    -4.501000000
H     4.729000000    -0.591000000    -3.515000000
C     3.834000000    -1.083000000    -6.731000000
H     3.791000000    -1.856000000    -7.493000000
C     3.512000000     0.212000000    -7.076000000
H     3.139000000     0.315000000    -8.092000000
C     3.620000000     1.259000000    -6.164000000
H     3.313000000     2.263000000    -6.447000000
C     4.061000000     1.024000000    -4.854000000
O     4.004000000     1.981000000    -3.838000000
C     2.865000000     2.712000000    -3.638000000
C     2.921000000     4.050000000    -3.198000000
H     3.871000000     4.560000000    -3.065000000
C     1.765000000     4.788000000    -2.961000000
O     1.787000000     6.147000000    -2.658000000
C     1.256000000     6.634000000    -1.454000000
C     0.292000000     7.584000000    -1.658000000
H     0.104000000     8.026000000    -2.633000000
C    -0.462000000     8.141000000    -0.616000000
H    -1.145000000     8.980000000    -0.722000000
C    -0.184000000     7.690000000     0.667000000
H    -0.636000000     8.176000000     1.529000000
C     0.744000000     6.686000000     0.931000000
C     1.427000000     6.095000000    -0.147000000
H     2.084000000     5.261000000     0.084000000
C     1.423000000     0.618000000     1.872000000
H     1.504000000     1.022000000     2.878000000
C     0.187000000     0.171000000     1.397000000
H    -0.678000000     0.150000000     2.055000000
C    -0.007000000    -0.214000000     0.119000000
C    -1.468000000    -0.590000000    -0.407000000
H    -1.358000000    -1.246000000    -1.272000000
H    -2.159000000    -1.194000000     0.185000000
H    -2.020000000     0.336000000    -0.585000000
C     1.014000000    -0.034000000    -0.832000000
H     0.770000000    -0.261000000    -1.867000000
C     2.262000000     0.354000000    -0.387000000
H     3.058000000     0.502000000    -1.112000000
C     2.526000000     0.596000000     0.979000000
C     3.926000000     1.007000000     1.440000000
O     4.818000000     1.141000000     0.619000000
O     4.054000000     1.304000000     2.630000000
O     6.290000000    -1.066000000     0.032000000
H     5.742000000    -0.335000000     0.317000000
H     5.671000000    -1.773000000    -0.148000000
O     6.972000000     4.496000000     0.528000000
H     7.481000000     3.908000000     1.086000000
H     7.586000000     4.771000000    -0.153000000
O     4.188000000     4.419000000     0.419000000
H     4.280000000     3.539000000     0.783000000
H     5.085000000     4.696000000     0.231000000
O     8.401000000     2.660000000     2.218000000
H     9.175000000     3.183000000     2.010000000
H     8.721000000     1.758000000     2.245000000
O     8.881000000    -0.067000000     2.736000000
H     8.878000000    -0.304000000     1.809000000
H     8.006000000    -0.301000000     3.046000000
O     6.720000000     1.912000000    -1.367000000
H     7.131000000     2.691000000    -0.993000000
H     6.111000000     1.614000000    -0.692000000
O     6.791000000     5.704000000     4.034000000
H     7.666000000     5.811000000     3.663000000
H     6.411000000     4.972000000     3.548000000
O     8.885000000    -0.092000000    -0.933000000
H     9.229000000    -0.985000000    -0.901000000
H     7.935000000    -0.199000000    -0.888000000
O     3.247000000     3.003000000     4.382000000
H     2.904000000     3.454000000     3.610000000
H     3.652000000     2.208000000     4.034000000
O     7.577000000     1.168000000    -3.709000000
H     7.713000000     1.211000000    -2.763000000
H     6.644000000     1.350000000    -3.826000000
O     7.656000000    -3.185000000     1.711000000
H     7.518000000    -4.092000000     1.435000000
H     7.742000000    -2.697000000     0.892000000
O    10.597000000     2.165000000    -1.065000000
H     9.899000000     1.517000000    -0.968000000
H    11.401000000     1.681000000    -0.873000000
O     5.055000000     0.064000000     4.857000000
H     5.482000000    -0.711000000     4.494000000
H     4.611000000     0.466000000     4.110000000
O     4.390000000    -0.687000000     7.966000000
H     3.495000000    -0.921000000     8.211000000
H     4.298000000    -0.221000000     7.136000000
O     4.125000000     4.507000000     6.513000000
H     4.045000000     4.109000000     5.646000000
H     4.264000000     5.437000000     6.338000000
O     6.470000000     1.905000000     5.956000000
H     6.357000000     2.484000000     5.203000000
H     5.938000000     1.136000000     5.749000000
O     6.056000000     3.029000000     3.402000000
H     5.353000000     2.524000000     2.994000000
H     6.856000000     2.702000000     2.989000000
O     3.747000000     6.365000000     2.190000000
H     2.821000000     6.520000000     2.004000000
H     3.968000000     5.591000000     1.671000000
O     6.675000000    -1.911000000     3.901000000
H     7.168000000    -2.102000000     4.699000000
H     6.983000000    -2.559000000     3.267000000
