218
-1489.74620
C     1.640000000    -3.958000000     2.809000000
H     1.585000000    -4.308000000     1.782000000
C     0.542000000    -3.284000000     3.364000000
C     0.643000000    -2.588000000     4.521000000
H    -0.303000000    -2.235000000     4.923000000
C    -0.732000000    -3.213000000     2.533000000
O    -0.997000000    -4.315000000     1.834000000
H    -0.617000000    -2.330000000     1.887000000
O    -1.937000000    -2.972000000     3.446000000
C    -2.892000000    -2.114000000     2.971000000
C    -2.869000000    -0.806000000     3.503000000
H    -2.126000000    -0.619000000     4.274000000
C    -3.682000000     0.189000000     3.033000000
O    -3.493000000     1.467000000     3.402000000
C    -4.607000000    -0.071000000     1.945000000
C    -5.407000000     1.040000000     1.305000000
H    -6.285000000     0.703000000     0.749000000
C    -4.634000000     1.787000000     0.249000000
C    -4.762000000     1.367000000    -1.070000000
H    -5.339000000     0.495000000    -1.364000000
H    -5.783000000     1.679000000     2.106000000
C    -4.644000000    -1.388000000     1.442000000
H    -5.320000000    -1.592000000     0.616000000
C    -3.800000000    -2.411000000     1.933000000
C    -3.782000000    -3.825000000     1.324000000
H    -4.726000000    -4.008000000     0.806000000
H    -3.689000000    -4.614000000     2.073000000
C    -2.730000000    -3.939000000     0.242000000
C    -3.131000000    -3.796000000    -1.101000000
H    -4.139000000    -3.446000000    -1.308000000
C    -1.418000000    -4.270000000     0.526000000
C    -0.467000000    -4.393000000    -0.462000000
H     0.558000000    -4.474000000    -0.110000000
C    -0.784000000    -4.107000000    -1.768000000
O     0.173000000    -4.122000000    -2.813000000
C     0.671000000    -2.767000000    -3.238000000
C     2.165000000    -2.595000000    -3.283000000
C     2.809000000    -1.985000000    -4.330000000
H     2.135000000    -1.575000000    -5.078000000
C     2.901000000    -3.053000000    -2.244000000
H     2.393000000    -3.529000000    -1.409000000
O    -0.038000000    -2.540000000    -4.458000000
H     0.274000000    -2.065000000    -2.490000000
C    -2.121000000    -3.849000000    -2.086000000
C    -2.614000000    -3.571000000    -3.492000000
H    -3.637000000    -3.937000000    -3.598000000
H    -2.112000000    -4.224000000    -4.209000000
C    -2.403000000    -2.120000000    -3.900000000
C    -3.349000000    -1.174000000    -3.625000000
H    -4.362000000    -1.388000000    -3.295000000
C    -1.138000000    -1.685000000    -4.382000000
C    -0.831000000    -0.381000000    -4.595000000
H     0.127000000    -0.127000000    -5.042000000
C    -1.773000000     0.587000000    -4.290000000
O    -1.412000000     1.890000000    -4.219000000
C    -1.025000000     2.518000000    -2.993000000
C     0.265000000     3.339000000    -3.100000000
C     1.254000000     3.149000000    -4.095000000
H     1.131000000     2.296000000    -4.757000000
C     0.533000000     4.393000000    -2.194000000
H    -0.214000000     4.578000000    -1.426000000
O    -2.116000000     3.366000000    -2.676000000
H    -1.038000000     1.748000000    -2.208000000
C    -3.039000000     0.210000000    -3.762000000
C    -4.020000000     1.270000000    -3.488000000
H    -5.029000000     0.892000000    -3.666000000
H    -3.902000000     2.113000000    -4.172000000
C    -3.920000000     1.823000000    -2.111000000
C    -3.012000000     2.892000000    -1.822000000
C    -2.981000000     3.384000000    -0.512000000
H    -2.291000000     4.203000000    -0.325000000
C    -3.624000000     2.721000000     0.512000000
O    -3.292000000     3.138000000     1.774000000
C    -2.546000000     2.225000000     2.653000000
H    -1.947000000     1.537000000     2.038000000
C    -1.489000000     2.857000000     3.476000000
C    -1.124000000     2.439000000     4.740000000
H    -1.614000000     1.618000000     5.257000000
C    -0.809000000     4.002000000     2.895000000
H    -1.069000000     4.356000000     1.900000000
C     0.203000000     4.667000000     3.610000000
O     0.869000000     5.803000000     3.179000000
C     0.536000000     4.178000000     4.885000000
H     1.250000000     4.676000000     5.536000000
C    -0.103000000     3.058000000     5.385000000
O     0.265000000     2.677000000     6.668000000
C     0.189000000     1.353000000     7.043000000
C     1.010000000     0.364000000     6.406000000
H     1.561000000     0.637000000     5.509000000
C    -0.392000000     1.084000000     8.263000000
H    -0.943000000     1.878000000     8.759000000
C    -0.547000000    -0.275000000     8.638000000
H    -0.937000000    -0.518000000     9.623000000
C     0.112000000    -1.300000000     8.004000000
H     0.116000000    -2.328000000     8.358000000
C     0.918000000    -0.941000000     6.860000000
O     1.860000000    -1.885000000     6.426000000
C     1.837000000    -2.547000000     5.251000000
C     2.922000000    -3.307000000     4.817000000
H     3.795000000    -3.319000000     5.464000000
C     2.789000000    -4.043000000     3.630000000
O     3.798000000    -4.943000000     3.269000000
C     4.169000000    -5.172000000     1.938000000
C     4.585000000    -4.199000000     1.129000000
H     4.855000000    -3.286000000     1.653000000
C     3.882000000    -6.440000000     1.412000000
H     3.483000000    -7.149000000     2.132000000
C     3.977000000    -6.587000000     0.049000000
H     3.739000000    -7.558000000    -0.379000000
C     4.454000000    -5.569000000    -0.819000000
H     4.538000000    -5.702000000    -1.894000000
C     4.701000000    -4.362000000    -0.231000000
O     5.014000000    -3.290000000    -1.045000000
C     4.267000000    -2.838000000    -2.120000000
C     4.892000000    -2.161000000    -3.123000000
H     5.892000000    -1.768000000    -2.956000000
C     4.200000000    -1.728000000    -4.291000000
O     4.940000000    -0.925000000    -5.128000000
C     4.390000000     0.106000000    -5.859000000
C     4.051000000     1.300000000    -5.157000000
H     4.243000000     1.290000000    -4.087000000
C     4.263000000     0.006000000    -7.272000000
H     4.668000000    -0.828000000    -7.839000000
C     3.826000000     1.134000000    -7.871000000
H     3.704000000     1.156000000    -8.951000000
C     3.463000000     2.275000000    -7.170000000
H     3.311000000     3.179000000    -7.753000000
C     3.537000000     2.440000000    -5.831000000
O     3.413000000     3.666000000    -5.209000000
C     2.456000000     3.906000000    -4.177000000
C     2.618000000     4.891000000    -3.225000000
H     3.496000000     5.530000000    -3.274000000
C     1.763000000     5.093000000    -2.202000000
O     2.035000000     6.147000000    -1.362000000
C     1.114000000     6.518000000    -0.387000000
C    -0.005000000     7.368000000    -0.553000000
H    -0.241000000     7.704000000    -1.560000000
C    -0.761000000     7.693000000     0.581000000
H    -1.575000000     8.409000000     0.495000000
C    -0.490000000     7.138000000     1.830000000
H    -1.013000000     7.307000000     2.768000000
C     0.593000000     6.360000000     1.957000000
C     1.387000000     6.041000000     0.879000000
H     2.286000000     5.453000000     1.044000000
C     1.727000000     1.658000000     1.304000000
H     1.949000000     2.597000000     1.804000000
C     0.475000000     1.300000000     0.758000000
H    -0.228000000     2.129000000     0.732000000
C     0.247000000     0.088000000     0.135000000
C    -1.117000000    -0.243000000    -0.384000000
H    -1.151000000    -0.502000000    -1.444000000
H    -1.472000000    -1.097000000     0.196000000
H    -1.904000000     0.485000000    -0.177000000
C     1.208000000    -0.932000000     0.262000000
H     1.036000000    -1.927000000    -0.141000000
C     2.445000000    -0.602000000     0.824000000
H     3.256000000    -1.317000000     0.940000000
C     2.759000000     0.681000000     1.321000000
C     4.099000000     0.867000000     1.916000000
O     4.910000000     0.006000000     2.043000000
O     4.435000000     2.037000000     2.104000000
O     8.275000000    -4.015000000     2.462000000
H     8.721000000    -3.804000000     3.282000000
H     7.704000000    -3.264000000     2.299000000
O     6.656000000    -1.726000000     2.829000000
H     5.979000000    -1.119000000     2.529000000
H     7.307000000    -1.168000000     3.255000000
O     4.344000000     1.430000000    -1.349000000
H     3.594000000     0.864000000    -1.164000000
H     5.106000000     0.861000000    -1.239000000
O     4.776000000     4.591000000     1.474000000
H     5.083000000     4.765000000     2.363000000
H     4.423000000     3.702000000     1.512000000
O     7.112000000     2.594000000     1.410000000
H     7.051000000     3.172000000     0.649000000
H     6.209000000     2.503000000     1.715000000
O     6.472000000     0.131000000    -0.182000000
H     6.618000000    -0.813000000    -0.241000000
H     6.327000000     0.293000000     0.750000000
O     8.356000000     1.635000000    -1.662000000
H     7.797000000     2.333000000    -2.005000000
H     7.806000000     1.179000000    -1.026000000
O     5.498000000     0.842000000     7.333000000
H     4.779000000     1.377000000     7.668000000
H     5.717000000     1.237000000     6.489000000
O     5.848000000     3.863000000    -1.057000000
H     5.202000000     3.228000000    -1.366000000
H     5.446000000     4.256000000    -0.282000000
O     8.865000000     4.269000000     3.106000000
H     9.779000000     3.992000000     3.162000000
H     8.467000000     3.657000000     2.487000000
O     4.201000000    -1.616000000     8.399000000
H     3.711000000    -1.360000000     7.617000000
H     4.921000000    -2.152000000     8.066000000
O     4.302000000     2.885000000     4.804000000
H     4.138000000     2.515000000     3.937000000
H     4.833000000     3.663000000     4.637000000
O     8.368000000     0.355000000     2.166000000
H     9.069000000     0.036000000     1.599000000
H     8.135000000     1.209000000     1.801000000
O     6.863000000    -3.808000000     5.086000000
H     7.505000000    -4.517000000     5.119000000
H     6.486000000    -3.866000000     4.209000000
O     7.930000000    -1.065000000     6.664000000
H     7.316000000    -0.488000000     7.118000000
H     7.405000000    -1.486000000     5.983000000
O     8.170000000     3.296000000     5.953000000
H     8.241000000     2.830000000     5.120000000
H     9.065000000     3.575000000     6.148000000
O     6.061000000     0.682000000     4.620000000
H     5.884000000     0.460000000     3.706000000
H     5.299000000     1.193000000     4.894000000
O     9.019000000     1.035000000     4.608000000
H     8.152000000     0.722000000     4.868000000
H     9.117000000     0.743000000     3.702000000
O     5.870000000     4.965000000     3.851000000
H     5.996000000     5.908000000     3.747000000
H     6.713000000     4.644000000     4.173000000
