218
-1470.18525
C    -5.356000000     0.208000000     0.100000000
H    -5.233000000     0.921000000    -0.710000000
C    -4.765000000     0.314000000     1.314000000
C    -4.849000000    -0.746000000     2.245000000
H    -4.490000000    -0.661000000     3.267000000
C    -3.862000000     1.475000000     1.634000000
O    -4.278000000     2.723000000     1.018000000
H    -2.870000000     1.264000000     1.210000000
O    -3.744000000     1.701000000     3.066000000
C    -2.465000000     2.007000000     3.548000000
C    -1.781000000     0.917000000     4.051000000
H    -2.306000000    -0.028000000     4.153000000
C    -0.443000000     0.968000000     4.434000000
O     0.102000000    -0.204000000     4.796000000
C     0.224000000     2.181000000     4.382000000
C     1.669000000     2.294000000     4.750000000
H     2.050000000     3.292000000     4.978000000
C     2.625000000     1.834000000     3.620000000
C     3.071000000     2.845000000     2.773000000
H     2.626000000     3.828000000     2.905000000
H     1.895000000     1.644000000     5.598000000
C    -0.456000000     3.270000000     3.802000000
H     0.129000000     4.178000000     3.679000000
C    -1.802000000     3.232000000     3.427000000
C    -2.446000000     4.450000000     2.782000000
H    -2.031000000     5.367000000     3.206000000
H    -3.460000000     4.680000000     3.116000000
C    -2.354000000     4.311000000     1.277000000
C    -1.259000000     4.867000000     0.617000000
H    -0.505000000     5.477000000     1.108000000
C    -3.278000000     3.517000000     0.542000000
C    -3.148000000     3.368000000    -0.831000000
H    -3.896000000     2.774000000    -1.351000000
C    -2.005000000     3.885000000    -1.513000000
O    -1.798000000     3.445000000    -2.834000000
C    -0.739000000     2.536000000    -3.169000000
C    -1.098000000     1.552000000    -4.300000000
C    -0.177000000     1.003000000    -5.150000000
H     0.859000000     1.331000000    -5.144000000
C    -2.373000000     0.981000000    -4.274000000
H    -3.140000000     1.371000000    -3.611000000
O     0.446000000     3.238000000    -3.465000000
H    -0.413000000     1.902000000    -2.332000000
C    -1.058000000     4.636000000    -0.768000000
C     0.194000000     5.243000000    -1.422000000
H     0.589000000     6.056000000    -0.808000000
H     0.016000000     5.632000000    -2.427000000
C     1.223000000     4.164000000    -1.387000000
C     2.087000000     4.197000000    -0.316000000
H     1.923000000     4.813000000     0.564000000
C     1.397000000     3.298000000    -2.432000000
C     2.508000000     2.448000000    -2.467000000
H     2.567000000     1.690000000    -3.244000000
C     3.519000000     2.501000000    -1.499000000
O     4.539000000     1.566000000    -1.499000000
C     4.466000000     0.420000000    -0.661000000
C     4.866000000    -0.851000000    -1.392000000
C     4.549000000    -0.968000000    -2.695000000
H     4.161000000    -0.100000000    -3.222000000
C     5.491000000    -1.960000000    -0.813000000
H     5.784000000    -1.847000000     0.228000000
O     5.122000000     0.704000000     0.612000000
H     3.394000000     0.274000000    -0.463000000
C     3.268000000     3.373000000    -0.384000000
C     4.245000000     3.507000000     0.737000000
H     4.367000000     4.496000000     1.183000000
H     5.257000000     3.384000000     0.344000000
C     3.921000000     2.462000000     1.758000000
C     4.415000000     1.137000000     1.698000000
C     3.908000000     0.167000000     2.537000000
H     4.224000000    -0.870000000     2.457000000
C     3.010000000     0.499000000     3.469000000
O     2.389000000    -0.474000000     4.195000000
C     1.000000000    -0.788000000     3.858000000
H     0.912000000    -0.281000000     2.886000000
C     0.739000000    -2.278000000     3.533000000
C    -0.430000000    -2.916000000     3.958000000
H    -1.140000000    -2.301000000     4.505000000
C     1.696000000    -3.031000000     2.777000000
H     2.533000000    -2.520000000     2.308000000
C     1.397000000    -4.373000000     2.433000000
O     2.188000000    -5.112000000     1.583000000
C     0.219000000    -4.950000000     2.821000000
H    -0.159000000    -5.821000000     2.293000000
C    -0.680000000    -4.271000000     3.606000000
O    -1.760000000    -4.884000000     4.139000000
C    -2.830000000    -4.240000000     4.529000000
C    -3.822000000    -3.895000000     3.544000000
H    -3.515000000    -4.213000000     2.551000000
C    -3.130000000    -4.018000000     5.835000000
H    -2.409000000    -4.441000000     6.530000000
C    -4.296000000    -3.393000000     6.205000000
H    -4.405000000    -3.088000000     7.242000000
C    -5.245000000    -2.917000000     5.260000000
H    -6.096000000    -2.302000000     5.544000000
C    -4.962000000    -3.182000000     3.845000000
O    -5.868000000    -2.795000000     2.886000000
C    -5.663000000    -1.830000000     1.965000000
C    -6.237000000    -1.994000000     0.700000000
H    -6.810000000    -2.888000000     0.467000000
C    -6.077000000    -0.974000000    -0.245000000
O    -6.831000000    -0.973000000    -1.423000000
C    -6.469000000    -0.300000000    -2.539000000
C    -5.525000000    -0.762000000    -3.391000000
H    -4.877000000    -1.559000000    -3.034000000
C    -6.997000000     1.005000000    -2.730000000
H    -7.702000000     1.439000000    -2.025000000
C    -6.563000000     1.738000000    -3.864000000
H    -6.884000000     2.775000000    -3.907000000
C    -5.612000000     1.207000000    -4.703000000
H    -5.236000000     1.845000000    -5.499000000
C    -5.066000000     0.014000000    -4.476000000
O    -4.043000000    -0.483000000    -5.240000000
C    -2.768000000     0.043000000    -5.193000000
C    -1.826000000    -0.539000000    -6.004000000
H    -2.083000000    -1.448000000    -6.541000000
C    -0.529000000    -0.048000000    -6.029000000
O     0.432000000    -0.726000000    -6.847000000
C     1.758000000    -0.563000000    -6.599000000
C     2.342000000    -1.506000000    -5.755000000
H     1.743000000    -2.268000000    -5.263000000
C     2.451000000     0.382000000    -7.347000000
H     1.956000000     0.984000000    -8.104000000
C     3.794000000     0.470000000    -7.043000000
H     4.340000000     1.278000000    -7.522000000
C     4.424000000    -0.309000000    -6.111000000
H     5.487000000    -0.284000000    -5.881000000
C     3.635000000    -1.293000000    -5.447000000
O     4.265000000    -2.234000000    -4.705000000
C     4.759000000    -2.124000000    -3.438000000
C     5.283000000    -3.276000000    -2.859000000
H     5.377000000    -4.203000000    -3.418000000
C     5.683000000    -3.141000000    -1.521000000
O     6.273000000    -4.166000000    -0.788000000
C     5.559000000    -4.608000000     0.337000000
C     6.327000000    -4.898000000     1.489000000
H     7.402000000    -4.765000000     1.402000000
C     5.687000000    -5.365000000     2.639000000
H     6.224000000    -5.455000000     3.579000000
C     4.268000000    -5.288000000     2.705000000
H     3.669000000    -5.310000000     3.613000000
C     3.575000000    -5.084000000     1.559000000
C     4.199000000    -4.930000000     0.331000000
H     3.699000000    -4.736000000    -0.614000000
C     0.240000000    -2.485000000    -0.592000000
H     0.835000000    -3.353000000    -0.317000000
C     0.655000000    -1.295000000     0.001000000
H     1.581000000    -1.206000000     0.562000000
C    -0.115000000    -0.151000000    -0.236000000
C     0.219000000     1.056000000     0.505000000
H     0.549000000     1.837000000    -0.184000000
H    -0.589000000     1.380000000     1.163000000
H     1.024000000     0.815000000     1.203000000
C    -1.306000000    -0.185000000    -0.945000000
H    -1.915000000     0.707000000    -1.070000000
C    -1.670000000    -1.360000000    -1.620000000
H    -2.627000000    -1.364000000    -2.136000000
C    -0.939000000    -2.497000000    -1.415000000
C    -1.381000000    -3.812000000    -1.995000000
O    -2.334000000    -3.909000000    -2.695000000
O    -0.778000000    -4.831000000    -1.723000000
O    -5.115000000    -4.028000000    -2.204000000
H    -4.188000000    -3.808000000    -2.293000000
H    -5.252000000    -4.743000000    -2.825000000
O     0.157000000    -8.811000000    -4.561000000
H    -0.298000000    -9.179000000    -5.319000000
H    -0.226000000    -7.941000000    -4.450000000
O    -1.078000000    -8.972000000     1.507000000
H    -0.779000000    -8.188000000     1.046000000
H    -0.310000000    -9.273000000     1.992000000
O    -4.632000000    -3.091000000    -6.710000000
H    -4.592000000    -2.169000000    -6.965000000
H    -5.490000000    -3.189000000    -6.297000000
O     3.964000000    -6.799000000    -2.992000000
H     3.320000000    -6.164000000    -3.306000000
H     3.684000000    -7.003000000    -2.100000000
O    -2.429000000    -4.194000000    -5.458000000
H    -3.186000000    -3.730000000    -5.817000000
H    -2.441000000    -3.984000000    -4.524000000
O     3.059000000    -8.182000000    -0.810000000
H     2.177000000    -8.399000000    -1.113000000
H     2.984000000    -8.152000000     0.143000000
O     2.103000000    -5.573000000    -5.714000000
H     1.286000000    -5.501000000    -6.206000000
H     1.903000000    -5.194000000    -4.859000000
O    -5.910000000    -6.031000000    -4.057000000
H    -6.848000000    -6.168000000    -4.195000000
H    -5.606000000    -6.844000000    -3.654000000
O    -2.738000000    -9.064000000    -3.987000000
H    -3.352000000    -8.856000000    -3.282000000
H    -2.156000000    -8.305000000    -4.029000000
O    -4.800000000    -6.499000000    -6.738000000
H    -4.628000000    -7.405000000    -6.484000000
H    -4.915000000    -6.035000000    -5.909000000
O    -2.994000000    -6.163000000    -0.657000000
H    -3.594000000    -5.524000000    -0.274000000
H    -2.321000000    -5.634000000    -1.086000000
O    -0.366000000    -5.492000000    -6.735000000
H    -1.051000000    -4.943000000    -6.353000000
H    -0.829000000    -6.271000000    -7.044000000
O     0.728000000    -9.365000000    -1.917000000
H     0.462000000    -9.178000000    -2.817000000
H    -0.012000000    -9.844000000    -1.543000000
O     0.061000000    -6.976000000    -0.175000000
H    -0.211000000    -6.149000000    -0.571000000
H     0.093000000    -7.593000000    -0.906000000
O     1.565000000    -5.082000000    -2.964000000
H     1.602000000    -4.202000000    -2.590000000
H     0.737000000    -5.443000000    -2.647000000
O    -4.582000000    -8.001000000    -2.128000000
H    -5.499000000    -8.074000000    -1.864000000
H    -4.195000000    -7.403000000    -1.489000000
O    -1.494000000    -6.537000000    -3.919000000
H    -1.583000000    -6.166000000    -3.041000000
H    -1.764000000    -5.830000000    -4.506000000
O    -5.350000000    -4.984000000     0.310000000
H    -5.937000000    -4.402000000     0.794000000
H    -5.409000000    -4.684000000    -0.597000000
