218
-1486.49758
C     2.632000000    -3.803000000     2.559000000
H     2.567000000    -4.496000000     1.724000000
C     1.458000000    -3.314000000     3.205000000
C     1.605000000    -2.478000000     4.372000000
H     0.667000000    -2.177000000     4.832000000
C     0.066000000    -3.561000000     2.609000000
O     0.026000000    -4.604000000     1.707000000
H    -0.129000000    -2.662000000     2.005000000
O    -1.064000000    -3.585000000     3.506000000
C    -2.137000000    -2.689000000     3.345000000
C    -2.112000000    -1.444000000     3.919000000
H    -1.370000000    -1.133000000     4.649000000
C    -3.014000000    -0.509000000     3.532000000
O    -2.864000000     0.748000000     4.003000000
C    -4.032000000    -0.856000000     2.637000000
C    -5.088000000     0.127000000     2.245000000
H    -6.114000000    -0.242000000     2.184000000
C    -4.632000000     0.967000000     1.096000000
C    -5.038000000     0.694000000    -0.203000000
H    -5.712000000    -0.142000000    -0.375000000
H    -5.136000000     0.703000000     3.171000000
C    -4.100000000    -2.160000000     2.165000000
H    -4.840000000    -2.460000000     1.427000000
C    -3.081000000    -3.083000000     2.389000000
C    -2.985000000    -4.418000000     1.751000000
H    -3.978000000    -4.818000000     1.537000000
H    -2.547000000    -5.201000000     2.375000000
C    -2.094000000    -4.353000000     0.497000000
C    -2.730000000    -4.106000000    -0.699000000
H    -3.796000000    -3.913000000    -0.792000000
C    -0.691000000    -4.470000000     0.581000000
C     0.110000000    -4.403000000    -0.586000000
H     1.166000000    -4.656000000    -0.542000000
C    -0.532000000    -4.183000000    -1.803000000
O     0.230000000    -3.949000000    -2.885000000
C     0.322000000    -2.534000000    -3.352000000
C     1.731000000    -2.120000000    -3.719000000
C     2.132000000    -1.403000000    -4.851000000
H     1.381000000    -1.158000000    -5.598000000
C     2.666000000    -2.402000000    -2.748000000
H     2.279000000    -2.894000000    -1.859000000
O    -0.571000000    -2.263000000    -4.493000000
H     0.058000000    -1.807000000    -2.570000000
C    -1.925000000    -3.998000000    -1.871000000
C    -2.664000000    -3.756000000    -3.191000000
H    -3.674000000    -4.165000000    -3.259000000
H    -2.111000000    -4.286000000    -3.970000000
C    -2.836000000    -2.267000000    -3.505000000
C    -3.879000000    -1.489000000    -2.987000000
H    -4.696000000    -1.946000000    -2.435000000
C    -1.748000000    -1.662000000    -4.177000000
C    -1.745000000    -0.327000000    -4.381000000
H    -0.898000000     0.200000000    -4.812000000
C    -2.796000000     0.463000000    -3.869000000
O    -2.586000000     1.829000000    -3.952000000
C    -2.084000000     2.538000000    -2.847000000
C    -0.960000000     3.532000000    -3.152000000
C    -0.198000000     3.347000000    -4.313000000
H    -0.555000000     2.686000000    -5.099000000
C    -0.690000000     4.607000000    -2.300000000
H    -1.341000000     4.843000000    -1.462000000
O    -3.250000000     3.124000000    -2.155000000
H    -1.521000000     1.870000000    -2.177000000
C    -3.853000000    -0.072000000    -3.181000000
C    -4.972000000     0.794000000    -2.652000000
H    -5.877000000     0.184000000    -2.682000000
H    -5.073000000     1.664000000    -3.306000000
C    -4.601000000     1.337000000    -1.298000000
C    -3.710000000     2.356000000    -1.133000000
C    -3.301000000     2.759000000     0.176000000
H    -2.716000000     3.641000000     0.422000000
C    -3.702000000     1.972000000     1.263000000
O    -3.208000000     2.451000000     2.466000000
C    -2.233000000     1.613000000     3.100000000
H    -1.783000000     1.011000000     2.297000000
C    -1.140000000     2.463000000     3.748000000
C    -0.629000000     2.239000000     5.032000000
H    -1.151000000     1.574000000     5.716000000
C    -0.543000000     3.433000000     2.921000000
H    -0.902000000     3.568000000     1.904000000
C     0.573000000     4.217000000     3.439000000
O     1.265000000     4.962000000     2.621000000
C     1.044000000     4.004000000     4.721000000
H     1.877000000     4.492000000     5.221000000
C     0.459000000     2.958000000     5.491000000
O     1.012000000     2.632000000     6.719000000
C     1.151000000     1.335000000     7.127000000
C     1.994000000     0.497000000     6.383000000
H     2.608000000     0.925000000     5.596000000
C     0.490000000     0.811000000     8.214000000
H    -0.223000000     1.417000000     8.768000000
C     0.644000000    -0.518000000     8.570000000
H     0.004000000    -0.931000000     9.345000000
C     1.432000000    -1.331000000     7.799000000
H     1.606000000    -2.350000000     8.137000000
C     2.191000000    -0.849000000     6.760000000
O     3.057000000    -1.665000000     6.117000000
C     2.879000000    -2.283000000     4.940000000
C     3.967000000    -2.797000000     4.280000000
H     4.944000000    -2.794000000     4.757000000
C     3.856000000    -3.551000000     3.096000000
O     4.880000000    -4.185000000     2.549000000
C     5.048000000    -4.265000000     1.189000000
C     4.719000000    -3.214000000     0.314000000
H     4.408000000    -2.245000000     0.694000000
C     5.597000000    -5.405000000     0.684000000
H     5.805000000    -6.206000000     1.388000000
C     5.733000000    -5.599000000    -0.714000000
H     5.974000000    -6.583000000    -1.108000000
C     5.420000000    -4.584000000    -1.595000000
H     5.633000000    -4.569000000    -2.661000000
C     4.996000000    -3.382000000    -1.041000000
O     4.888000000    -2.293000000    -1.894000000
C     4.012000000    -2.091000000    -2.909000000
C     4.396000000    -1.482000000    -4.063000000
H     5.433000000    -1.260000000    -4.301000000
C     3.455000000    -1.028000000    -5.010000000
O     3.814000000    -0.406000000    -6.161000000
C     3.027000000     0.635000000    -6.648000000
C     2.762000000     1.733000000    -5.807000000
H     3.053000000     1.659000000    -4.762000000
C     2.499000000     0.610000000    -7.954000000
H     2.678000000    -0.264000000    -8.575000000
C     1.816000000     1.686000000    -8.410000000
H     1.495000000     1.706000000    -9.448000000
C     1.565000000     2.729000000    -7.560000000
H     1.109000000     3.642000000    -7.934000000
C     1.970000000     2.781000000    -6.228000000
O     1.740000000     3.964000000    -5.497000000
C     0.915000000     4.114000000    -4.444000000
C     1.208000000     5.220000000    -3.639000000
H     2.110000000     5.792000000    -3.840000000
C     0.346000000     5.501000000    -2.547000000
O     0.590000000     6.669000000    -1.838000000
C     0.353000000     6.686000000    -0.448000000
C    -0.380000000     7.769000000     0.014000000
H    -0.750000000     8.473000000    -0.727000000
C    -0.581000000     7.911000000     1.388000000
H    -1.086000000     8.770000000     1.821000000
C     0.053000000     7.027000000     2.273000000
H    -0.034000000     7.090000000     3.355000000
C     0.800000000     5.961000000     1.752000000
C     0.967000000     5.828000000     0.415000000
H     1.627000000     5.047000000     0.047000000
C     2.037000000     1.412000000     0.618000000
H     2.710000000     1.606000000     1.449000000
C     0.938000000     0.482000000     0.750000000
H     0.701000000    -0.010000000     1.690000000
C     0.203000000     0.162000000    -0.388000000
C    -1.018000000    -0.733000000    -0.241000000
H    -0.609000000    -1.686000000     0.100000000
H    -1.813000000    -0.346000000     0.400000000
H    -1.618000000    -0.937000000    -1.131000000
C     0.525000000     0.681000000    -1.624000000
H    -0.205000000     0.531000000    -2.415000000
C     1.685000000     1.519000000    -1.763000000
H     1.999000000     1.785000000    -2.769000000
C     2.392000000     1.910000000    -0.623000000
C     3.547000000     2.873000000    -0.689000000
O     3.912000000     3.213000000    -1.829000000
O     4.121000000     3.251000000     0.322000000
O     6.603000000     6.271000000     0.781000000
H     6.351000000     5.494000000     0.282000000
H     5.993000000     6.949000000     0.491000000
O     3.838000000     7.473000000     0.844000000
H     3.212000000     6.983000000     1.377000000
H     4.105000000     6.858000000     0.161000000
O     5.894000000    -0.099000000     0.647000000
H     6.052000000     0.739000000     1.083000000
H     6.258000000     0.015000000    -0.231000000
O     5.454000000     1.070000000    -2.067000000
H     4.823000000     1.786000000    -2.142000000
H     5.011000000     0.319000000    -2.461000000
O     9.220000000     5.623000000     0.081000000
H     9.661000000     5.766000000     0.918000000
H     8.318000000     5.903000000     0.234000000
O     6.217000000     2.118000000    -5.086000000
H     6.892000000     1.440000000    -5.128000000
H     5.824000000     2.118000000    -5.959000000
O     6.895000000    -1.824000000     2.540000000
H     6.278000000    -1.518000000     1.875000000
H     7.470000000    -1.075000000     2.697000000
O     7.684000000     2.728000000    -2.808000000
H     7.082000000     2.489000000    -3.513000000
H     7.697000000     1.962000000    -2.235000000
O     4.654000000     6.063000000    -1.245000000
H     4.550000000     5.140000000    -1.015000000
H     5.343000000     6.068000000    -1.909000000
O     2.981000000     7.154000000     4.234000000
H     2.459000000     7.956000000     4.258000000
H     2.633000000     6.665000000     3.489000000
O     4.110000000     4.960000000     2.481000000
H     3.333000000     4.474000000     2.760000000
H     4.393000000     4.518000000     1.681000000
O     5.083000000     4.421000000    -3.879000000
H     4.647000000     3.963000000    -3.161000000
H     5.461000000     3.722000000    -4.414000000
O     6.568000000     4.006000000    -0.516000000
H     7.041000000     4.021000000    -1.348000000
H     5.739000000     3.572000000    -0.719000000
O     6.581000000     2.763000000     1.879000000
H     5.629000000     2.857000000     1.898000000
H     6.851000000     3.209000000     1.076000000
O     7.634000000     3.779000000     4.495000000
H     7.666000000     3.635000000     3.549000000
H     6.749000000     4.107000000     4.657000000
O     7.749000000     0.867000000     3.565000000
H     7.270000000     1.480000000     3.007000000
H     7.103000000     0.570000000     4.205000000
O     3.441000000     8.843000000    -2.677000000
H     3.790000000     8.197000000    -2.062000000
H     2.510000000     8.631000000    -2.744000000
O     4.322000000     6.503000000    -5.265000000
H     4.325000000     5.829000000    -4.585000000
H     4.692000000     6.069000000    -6.033000000
O     5.746000000     6.988000000     3.779000000
H     5.847000000     6.310000000     3.111000000
H     4.805000000     7.164000000     3.802000000
