218
-1452.67287
C    -5.084000000     0.311000000     0.059000000
H    -4.783000000     0.922000000    -0.789000000
C    -4.555000000     0.625000000     1.299000000
C    -4.983000000    -0.087000000     2.423000000
H    -4.613000000     0.178000000     3.409000000
C    -3.636000000     1.773000000     1.523000000
O    -3.929000000     2.896000000     0.755000000
H    -2.621000000     1.418000000     1.295000000
O    -3.558000000     2.213000000     2.898000000
C    -2.279000000     2.279000000     3.480000000
C    -1.822000000     1.112000000     4.109000000
H    -2.581000000     0.340000000     4.211000000
C    -0.479000000     1.077000000     4.442000000
O     0.048000000    -0.081000000     4.896000000
C     0.318000000     2.228000000     4.217000000
C     1.783000000     2.221000000     4.625000000
H     2.100000000     3.236000000     4.874000000
C     2.730000000     1.567000000     3.629000000
C     3.423000000     2.451000000     2.779000000
H     3.387000000     3.523000000     2.956000000
H     1.805000000     1.682000000     5.575000000
C    -0.190000000     3.396000000     3.678000000
H     0.426000000     4.291000000     3.714000000
C    -1.507000000     3.433000000     3.252000000
C    -2.063000000     4.512000000     2.418000000
H    -1.589000000     5.467000000     2.652000000
H    -3.118000000     4.578000000     2.691000000
C    -1.989000000     4.321000000     0.933000000
C    -0.827000000     4.834000000     0.262000000
H    -0.076000000     5.329000000     0.873000000
C    -2.890000000     3.601000000     0.144000000
C    -2.600000000     3.348000000    -1.177000000
H    -3.290000000     2.696000000    -1.707000000
C    -1.470000000     3.924000000    -1.789000000
O    -1.239000000     3.649000000    -3.112000000
C    -0.236000000     2.642000000    -3.365000000
C    -0.701000000     1.708000000    -4.467000000
C     0.177000000     1.305000000    -5.502000000
H     1.157000000     1.744000000    -5.670000000
C    -1.955000000     1.107000000    -4.337000000
H    -2.588000000     1.285000000    -3.472000000
O     1.054000000     3.290000000    -3.597000000
H    -0.147000000     2.079000000    -2.425000000
C    -0.544000000     4.619000000    -1.031000000
C     0.764000000     5.159000000    -1.541000000
H     1.136000000     6.069000000    -1.066000000
H     0.541000000     5.578000000    -2.524000000
C     1.935000000     4.186000000    -1.555000000
C     2.873000000     4.104000000    -0.542000000
H     2.819000000     4.836000000     0.261000000
C     1.951000000     3.297000000    -2.560000000
C     2.909000000     2.312000000    -2.570000000
H     2.798000000     1.540000000    -3.327000000
C     3.869000000     2.165000000    -1.567000000
O     4.720000000     1.058000000    -1.553000000
C     4.229000000    -0.066000000    -0.778000000
C     4.367000000    -1.380000000    -1.510000000
C     3.837000000    -1.471000000    -2.801000000
H     3.466000000    -0.596000000    -3.328000000
C     4.617000000    -2.530000000    -0.785000000
H     4.748000000    -2.509000000     0.293000000
O     4.910000000    -0.016000000     0.497000000
H     3.170000000     0.158000000    -0.584000000
C     3.869000000     3.100000000    -0.467000000
C     4.814000000     2.925000000     0.732000000
H     4.859000000     3.858000000     1.297000000
H     5.746000000     2.504000000     0.348000000
C     4.152000000     1.993000000     1.662000000
C     4.315000000     0.588000000     1.504000000
C     3.769000000    -0.237000000     2.447000000
H     3.942000000    -1.305000000     2.346000000
C     2.941000000     0.233000000     3.459000000
O     2.233000000    -0.649000000     4.244000000
C     0.858000000    -0.808000000     3.892000000
H     0.634000000    -0.447000000     2.877000000
C     0.446000000    -2.253000000     3.736000000
C    -0.861000000    -2.635000000     3.880000000
H    -1.663000000    -1.903000000     3.925000000
C     1.422000000    -3.194000000     3.417000000
H     2.469000000    -2.903000000     3.409000000
C     1.168000000    -4.566000000     3.367000000
O     2.148000000    -5.509000000     3.278000000
C    -0.138000000    -4.990000000     3.637000000
H    -0.422000000    -6.039000000     3.621000000
C    -1.198000000    -4.054000000     3.864000000
O    -2.498000000    -4.471000000     4.003000000
C    -3.545000000    -3.811000000     4.548000000
C    -4.447000000    -3.276000000     3.660000000
H    -4.374000000    -3.629000000     2.634000000
C    -3.541000000    -3.406000000     5.854000000
H    -2.692000000    -3.667000000     6.481000000
C    -4.514000000    -2.492000000     6.311000000
H    -4.426000000    -2.122000000     7.329000000
C    -5.396000000    -1.934000000     5.448000000
H    -6.161000000    -1.229000000     5.763000000
C    -5.454000000    -2.413000000     4.145000000
O    -6.343000000    -1.834000000     3.299000000
C    -5.940000000    -1.050000000     2.265000000
C    -6.436000000    -1.315000000     0.996000000
H    -7.121000000    -2.160000000     0.999000000
C    -6.098000000    -0.596000000    -0.122000000
O    -6.475000000    -1.113000000    -1.336000000
C    -6.199000000    -0.421000000    -2.463000000
C    -5.085000000    -0.770000000    -3.279000000
H    -4.505000000    -1.619000000    -2.926000000
C    -6.862000000     0.832000000    -2.707000000
H    -7.714000000     1.142000000    -2.107000000
C    -6.466000000     1.545000000    -3.822000000
H    -6.911000000     2.520000000    -4.006000000
C    -5.360000000     1.215000000    -4.568000000
H    -5.037000000     1.827000000    -5.406000000
C    -4.671000000     0.023000000    -4.344000000
O    -3.653000000    -0.402000000    -5.137000000
C    -2.403000000     0.193000000    -5.274000000
C    -1.598000000    -0.179000000    -6.348000000
H    -1.981000000    -0.924000000    -7.041000000
C    -0.302000000     0.373000000    -6.408000000
O     0.512000000     0.051000000    -7.423000000
C     1.722000000    -0.541000000    -7.139000000
C     1.894000000    -1.519000000    -6.165000000
H     0.958000000    -1.831000000    -5.709000000
C     2.792000000     0.028000000    -7.770000000
H     2.674000000     0.776000000    -8.549000000
C     4.058000000    -0.234000000    -7.384000000
H     4.875000000     0.229000000    -7.931000000
C     4.274000000    -1.112000000    -6.338000000
H     5.263000000    -1.294000000    -5.924000000
C     3.180000000    -1.750000000    -5.722000000
O     3.291000000    -2.743000000    -4.757000000
C     3.866000000    -2.650000000    -3.522000000
C     4.368000000    -3.805000000    -2.836000000
H     4.250000000    -4.742000000    -3.375000000
C     4.583000000    -3.804000000    -1.412000000
O     4.626000000    -4.999000000    -0.737000000
C     4.601000000    -5.133000000     0.616000000
C     5.715000000    -4.747000000     1.379000000
H     6.702000000    -4.623000000     0.940000000
C     5.662000000    -4.547000000     2.776000000
H     6.554000000    -4.332000000     3.359000000
C     4.493000000    -4.837000000     3.426000000
H     4.309000000    -4.751000000     4.494000000
C     3.336000000    -5.249000000     2.694000000
C     3.434000000    -5.524000000     1.316000000
H     2.606000000    -5.769000000     0.655000000
C     0.271000000    -2.742000000    -0.865000000
H     0.891000000    -3.632000000    -0.804000000
C     0.762000000    -1.483000000    -0.480000000
H     1.754000000    -1.469000000    -0.037000000
C    -0.067000000    -0.400000000    -0.337000000
C     0.421000000     0.821000000     0.404000000
H     1.511000000     0.799000000     0.468000000
H     0.017000000     1.641000000    -0.193000000
H    -0.030000000     0.923000000     1.393000000
C    -1.325000000    -0.493000000    -0.833000000
H    -2.022000000     0.330000000    -0.693000000
C    -1.791000000    -1.738000000    -1.329000000
H    -2.795000000    -1.859000000    -1.727000000
C    -0.990000000    -2.870000000    -1.368000000
C    -1.495000000    -4.202000000    -1.823000000
O    -2.651000000    -4.337000000    -2.133000000
O    -0.762000000    -5.178000000    -1.682000000
O     3.071000000    -6.312000000    -5.684000000
H     2.868000000    -7.102000000    -6.186000000
H     2.251000000    -5.819000000    -5.671000000
O    -4.911000000    -3.973000000    -1.083000000
H    -5.001000000    -3.024000000    -1.002000000
H    -4.028000000    -4.101000000    -1.428000000
O    -4.648000000    -6.137000000    -5.037000000
H    -5.588000000    -6.257000000    -5.173000000
H    -4.477000000    -5.240000000    -5.326000000
O    -1.669000000    -8.571000000     2.396000000
H    -0.882000000    -9.029000000     2.101000000
H    -1.603000000    -7.702000000     2.000000000
O    -0.282000000    -7.455000000    -5.204000000
H     0.260000000    -6.817000000    -4.740000000
H    -1.170000000    -7.100000000    -5.148000000
O    -2.768000000    -3.231000000    -7.551000000
H    -3.557000000    -3.344000000    -7.022000000
H    -2.816000000    -2.327000000    -7.862000000
O     3.886000000    -7.533000000    -3.446000000
H     3.442000000    -7.218000000    -2.659000000
H     3.592000000    -6.942000000    -4.139000000
O    -1.299000000    -3.255000000    -4.931000000
H    -1.906000000    -3.226000000    -5.670000000
H    -1.789000000    -2.873000000    -4.203000000
O     1.140000000    -8.381000000    -1.141000000
H     0.230000000    -8.574000000    -1.364000000
H     1.188000000    -7.425000000    -1.134000000
O     0.998000000    -4.708000000    -5.357000000
H     0.209000000    -4.195000000    -5.182000000
H     1.636000000    -4.392000000    -4.716000000
O    -4.927000000    -3.395000000    -5.575000000
H    -5.717000000    -3.936000000    -5.568000000
H    -5.219000000    -2.540000000    -5.258000000
O    -1.486000000    -8.678000000    -1.593000000
H    -2.058000000    -9.444000000    -1.534000000
H    -2.039000000    -7.995000000    -1.972000000
O    -5.053000000    -5.716000000     1.068000000
H    -4.860000000    -5.172000000     0.305000000
H    -4.211000000    -6.105000000     1.305000000
O    -4.105000000    -9.543000000     1.065000000
H    -4.035000000    -9.045000000     0.251000000
H    -3.514000000    -9.096000000     1.671000000
O    -2.023000000    -6.185000000     0.934000000
H    -2.027000000    -6.279000000    -0.019000000
H    -1.373000000    -5.504000000     1.105000000
O     1.842000000    -5.871000000    -1.981000000
H     2.310000000    -5.139000000    -1.579000000
H     0.921000000    -5.612000000    -1.951000000
O    -4.442000000    -7.873000000    -0.928000000
H    -4.035000000    -7.472000000    -1.697000000
H    -4.911000000    -7.155000000    -0.503000000
O    -3.172000000    -6.760000000    -2.932000000
H    -2.899000000    -5.916000000    -2.573000000
H    -3.481000000    -6.557000000    -3.815000000
O    -7.877000000    -3.784000000    -1.162000000
H    -8.388000000    -3.701000000    -1.968000000
H    -7.014000000    -4.077000000    -1.455000000
