218
-1492.18330
C     1.450000000    -5.048000000     2.230000000
H     1.605000000    -5.413000000     1.218000000
C     0.321000000    -4.295000000     2.726000000
C     0.406000000    -3.665000000     3.960000000
H    -0.450000000    -3.137000000     4.373000000
C    -0.836000000    -3.957000000     1.801000000
O    -0.971000000    -4.997000000     0.835000000
H    -0.697000000    -2.980000000     1.315000000
O    -2.073000000    -3.889000000     2.570000000
C    -2.994000000    -2.948000000     2.214000000
C    -3.076000000    -1.808000000     2.995000000
H    -2.481000000    -1.817000000     3.905000000
C    -3.829000000    -0.773000000     2.558000000
O    -3.660000000     0.523000000     3.275000000
C    -4.572000000    -0.861000000     1.392000000
C    -5.448000000     0.258000000     0.858000000
H    -6.275000000    -0.117000000     0.251000000
C    -4.672000000     1.224000000    -0.086000000
C    -4.776000000     1.213000000    -1.487000000
H    -5.346000000     0.413000000    -1.951000000
H    -5.875000000     0.706000000     1.757000000
C    -4.558000000    -1.996000000     0.670000000
H    -5.197000000    -2.038000000    -0.209000000
C    -3.725000000    -3.071000000     1.032000000
C    -3.674000000    -4.272000000     0.172000000
H    -4.593000000    -4.340000000    -0.414000000
H    -3.407000000    -5.207000000     0.670000000
C    -2.520000000    -4.098000000    -0.790000000
C    -2.731000000    -3.513000000    -2.001000000
H    -3.756000000    -3.197000000    -2.180000000
C    -1.214000000    -4.585000000    -0.449000000
C    -0.166000000    -4.330000000    -1.278000000
H     0.784000000    -4.855000000    -1.220000000
C    -0.309000000    -3.557000000    -2.444000000
O     0.808000000    -3.316000000    -3.220000000
C     1.103000000    -1.900000000    -3.390000000
C     2.614000000    -1.727000000    -3.123000000
C     3.353000000    -0.844000000    -3.942000000
H     2.917000000    -0.329000000    -4.794000000
C     3.234000000    -2.335000000    -2.055000000
H     2.708000000    -3.117000000    -1.512000000
O     0.677000000    -1.486000000    -4.680000000
H     0.529000000    -1.353000000    -2.627000000
C    -1.624000000    -3.265000000    -2.837000000
C    -1.936000000    -2.690000000    -4.255000000
H    -2.960000000    -2.999000000    -4.474000000
H    -1.225000000    -3.158000000    -4.941000000
C    -1.693000000    -1.274000000    -4.347000000
C    -2.774000000    -0.456000000    -4.194000000
H    -3.747000000    -0.904000000    -4.005000000
C    -0.462000000    -0.672000000    -4.550000000
C    -0.244000000     0.717000000    -4.643000000
H     0.747000000     1.132000000    -4.810000000
C    -1.356000000     1.459000000    -4.351000000
O    -1.178000000     2.787000000    -4.009000000
C    -1.081000000     3.255000000    -2.655000000
C     0.040000000     4.238000000    -2.428000000
C     1.232000000     4.037000000    -3.163000000
H     1.214000000     3.312000000    -3.973000000
C     0.093000000     5.027000000    -1.313000000
H    -0.848000000     5.046000000    -0.769000000
O    -2.344000000     3.882000000    -2.310000000
H    -1.015000000     2.375000000    -1.999000000
C    -2.609000000     0.919000000    -4.073000000
C    -3.794000000     1.804000000    -3.766000000
H    -4.706000000     1.319000000    -4.121000000
H    -3.788000000     2.723000000    -4.356000000
C    -3.970000000     2.070000000    -2.281000000
C    -3.251000000     3.052000000    -1.654000000
C    -3.261000000     3.142000000    -0.293000000
H    -2.713000000     3.974000000     0.142000000
C    -3.838000000     2.235000000     0.482000000
O    -3.686000000     2.400000000     1.805000000
C    -2.857000000     1.459000000     2.535000000
H    -2.211000000     0.957000000     1.800000000
C    -1.798000000     2.116000000     3.466000000
C    -1.075000000     1.335000000     4.373000000
H    -1.244000000     0.263000000     4.297000000
C    -1.561000000     3.508000000     3.450000000
H    -2.160000000     4.002000000     2.689000000
C    -0.672000000     4.147000000     4.331000000
O    -0.485000000     5.532000000     4.380000000
C     0.101000000     3.337000000     5.123000000
H     0.883000000     3.914000000     5.610000000
C    -0.177000000     1.930000000     5.216000000
O     0.632000000     1.262000000     6.110000000
C     0.359000000     0.003000000     6.595000000
C     1.123000000    -1.083000000     6.132000000
H     1.996000000    -0.969000000     5.495000000
C    -0.786000000    -0.137000000     7.350000000
H    -1.264000000     0.761000000     7.734000000
C    -1.302000000    -1.434000000     7.568000000
H    -2.218000000    -1.587000000     8.133000000
C    -0.553000000    -2.512000000     7.213000000
H    -1.013000000    -3.483000000     7.376000000
C     0.641000000    -2.304000000     6.437000000
O     1.426000000    -3.429000000     6.149000000
C     1.494000000    -3.907000000     4.858000000
C     2.552000000    -4.650000000     4.383000000
H     3.376000000    -4.919000000     5.039000000
C     2.562000000    -5.176000000     3.067000000
O     3.693000000    -5.785000000     2.603000000
C     4.305000000    -5.451000000     1.435000000
C     4.420000000    -4.100000000     1.072000000
H     4.126000000    -3.255000000     1.689000000
C     4.899000000    -6.466000000     0.715000000
H     4.707000000    -7.512000000     0.939000000
C     5.631000000    -6.122000000    -0.448000000
H     6.192000000    -6.819000000    -1.065000000
C     5.588000000    -4.808000000    -0.935000000
H     6.176000000    -4.633000000    -1.832000000
C     5.034000000    -3.786000000    -0.137000000
O     5.031000000    -2.462000000    -0.519000000
C     4.581000000    -2.036000000    -1.716000000
C     5.341000000    -1.138000000    -2.499000000
H     6.381000000    -0.892000000    -2.306000000
C     4.714000000    -0.590000000    -3.613000000
O     5.448000000     0.267000000    -4.424000000
C     4.884000000     1.390000000    -4.864000000
C     4.345000000     2.324000000    -3.955000000
H     4.472000000     2.091000000    -2.901000000
C     4.627000000     1.580000000    -6.223000000
H     4.969000000     0.798000000    -6.896000000
C     4.021000000     2.716000000    -6.660000000
H     3.816000000     2.846000000    -7.720000000
C     3.630000000     3.742000000    -5.779000000
H     3.163000000     4.670000000    -6.100000000
C     3.800000000     3.480000000    -4.450000000
O     3.561000000     4.506000000    -3.568000000
C     2.382000000     4.697000000    -2.799000000
C     2.462000000     5.568000000    -1.665000000
H     3.410000000     6.022000000    -1.390000000
C     1.249000000     5.732000000    -0.976000000
O     1.219000000     6.617000000     0.059000000
C     0.265000000     6.739000000     1.012000000
C    -0.965000000     7.388000000     0.726000000
H    -1.125000000     7.908000000    -0.215000000
C    -2.008000000     7.354000000     1.663000000
H    -2.944000000     7.825000000     1.375000000
C    -1.761000000     6.952000000     2.981000000
H    -2.565000000     7.071000000     3.702000000
C    -0.558000000     6.261000000     3.243000000
C     0.448000000     6.138000000     2.255000000
H     1.317000000     5.540000000     2.519000000
C     0.914000000     2.190000000     1.262000000
H     0.741000000     3.247000000     1.445000000
C    -0.037000000     1.527000000     0.437000000
H    -0.845000000     2.107000000     0.001000000
C     0.058000000     0.169000000     0.256000000
C    -1.016000000    -0.433000000    -0.556000000
H    -0.828000000    -0.279000000    -1.621000000
H    -1.004000000    -1.485000000    -0.264000000
H    -1.996000000    -0.049000000    -0.268000000
C     1.132000000    -0.514000000     0.742000000
H     1.221000000    -1.575000000     0.521000000
C     2.068000000     0.101000000     1.575000000
H     3.017000000    -0.344000000     1.862000000
C     1.936000000     1.481000000     1.840000000
C     2.970000000     2.115000000     2.680000000
O     3.761000000     1.408000000     3.284000000
O     2.923000000     3.301000000     2.879000000
O     3.117000000     7.846000000     2.442000000
H     3.396000000     7.007000000     2.810000000
H     3.866000000     8.427000000     2.576000000
O     4.061000000     5.434000000     3.700000000
H     3.549000000     4.667000000     3.445000000
H     3.989000000     5.464000000     4.654000000
O     4.872000000    -0.914000000     3.862000000
H     5.414000000    -1.227000000     3.137000000
H     4.417000000    -0.150000000     3.508000000
O     6.325000000    -0.701000000     6.311000000
H     5.687000000    -1.084000000     6.914000000
H     5.939000000    -0.823000000     5.444000000
O     6.316000000     1.963000000     6.073000000
H     6.238000000     1.062000000     6.385000000
H     6.052000000     2.499000000     6.820000000
O     3.653000000     2.880000000     5.605000000
H     2.971000000     2.580000000     5.004000000
H     4.362000000     2.246000000     5.499000000
O     7.969000000     4.126000000     1.173000000
H     7.288000000     3.873000000     1.797000000
H     7.606000000     4.885000000     0.717000000
O     2.101000000     2.619000000     8.457000000
H     1.809000000     3.445000000     8.842000000
H     2.317000000     2.839000000     7.551000000
O     4.248000000     5.077000000     7.461000000
H     4.175000000     4.266000000     6.957000000
H     3.431000000     5.543000000     7.284000000
O     7.892000000     1.258000000    -0.693000000
H     6.984000000     0.975000000    -0.580000000
H     7.886000000     2.185000000    -0.456000000
O     4.949000000     1.921000000     8.630000000
H     4.039000000     1.672000000     8.469000000
H     5.188000000     1.452000000     9.429000000
O     4.251000000     4.449000000     0.650000000
H     3.434000000     4.215000000     0.209000000
H     4.037000000     4.419000000     1.583000000
O     6.374000000     2.591000000     3.534000000
H     5.505000000     2.643000000     3.136000000
H     6.208000000     2.325000000     4.438000000
O     5.014000000     1.450000000     0.729000000
H     4.824000000     1.907000000     1.549000000
H     4.373000000     0.741000000     0.697000000
O     1.859000000     6.253000000     6.523000000
H     1.938000000     7.190000000     6.348000000
H     1.318000000     5.920000000     5.807000000
O     6.563000000     6.736000000     3.882000000
H     5.731000000     6.288000000     3.729000000
H     7.214000000     6.035000000     3.899000000
O     7.944000000     0.271000000     3.037000000
H     8.221000000     0.414000000     3.942000000
H     7.191000000     0.851000000     2.924000000
O     6.268000000     4.150000000    -1.402000000
H     5.467000000     4.244000000    -0.888000000
H     5.962000000     3.977000000    -2.293000000
O     6.691000000    -1.975000000     2.127000000
H     6.766000000    -2.001000000     1.173000000
H     7.247000000    -1.242000000     2.391000000
