218
-1473.09923
C     2.747000000    -2.962000000     2.818000000
H     2.927000000    -3.020000000     1.747000000
C     1.466000000    -3.004000000     3.368000000
C     1.335000000    -2.404000000     4.640000000
H     0.332000000    -2.245000000     5.028000000
C     0.263000000    -3.360000000     2.516000000
O     0.600000000    -4.549000000     1.742000000
H     0.060000000    -2.450000000     1.932000000
O    -0.880000000    -3.688000000     3.428000000
C    -2.075000000    -3.305000000     2.933000000
C    -2.477000000    -2.092000000     3.444000000
H    -1.905000000    -1.666000000     4.264000000
C    -3.458000000    -1.374000000     2.797000000
O    -3.672000000    -0.109000000     3.310000000
C    -4.151000000    -1.917000000     1.656000000
C    -5.334000000    -1.107000000     1.016000000
H    -6.014000000    -1.790000000     0.503000000
C    -4.893000000    -0.093000000     0.066000000
C    -4.690000000    -0.448000000    -1.283000000
H    -5.056000000    -1.431000000    -1.569000000
H    -5.804000000    -0.555000000     1.832000000
C    -3.766000000    -3.163000000     1.223000000
H    -4.251000000    -3.589000000     0.348000000
C    -2.650000000    -3.832000000     1.789000000
C    -2.110000000    -5.130000000     1.105000000
H    -2.975000000    -5.684000000     0.735000000
H    -1.684000000    -5.816000000     1.840000000
C    -1.102000000    -4.717000000     0.064000000
C    -1.478000000    -4.581000000    -1.239000000
H    -2.551000000    -4.728000000    -1.328000000
C     0.255000000    -4.611000000     0.464000000
C     1.202000000    -4.248000000    -0.474000000
H     2.234000000    -4.073000000    -0.177000000
C     0.811000000    -4.192000000    -1.798000000
O     1.794000000    -3.760000000    -2.624000000
C     1.756000000    -2.380000000    -3.058000000
C     3.126000000    -1.739000000    -3.123000000
C     3.387000000    -0.708000000    -4.039000000
H     2.663000000    -0.489000000    -4.820000000
C     4.162000000    -2.246000000    -2.296000000
H     4.036000000    -3.135000000    -1.684000000
O     1.018000000    -2.298000000    -4.255000000
H     1.124000000    -1.862000000    -2.322000000
C    -0.542000000    -4.279000000    -2.239000000
C    -1.071000000    -4.028000000    -3.669000000
H    -1.998000000    -4.569000000    -3.872000000
H    -0.387000000    -4.465000000    -4.400000000
C    -1.281000000    -2.559000000    -3.970000000
C    -2.528000000    -1.918000000    -3.819000000
H    -3.362000000    -2.530000000    -3.484000000
C    -0.220000000    -1.747000000    -4.238000000
C    -0.315000000    -0.344000000    -4.381000000
H     0.577000000     0.276000000    -4.413000000
C    -1.583000000     0.285000000    -4.310000000
O    -1.727000000     1.639000000    -4.398000000
C    -1.814000000     2.331000000    -3.106000000
C    -0.939000000     3.587000000    -3.145000000
C     0.083000000     3.784000000    -4.016000000
H     0.334000000     3.099000000    -4.822000000
C    -0.981000000     4.412000000    -1.994000000
H    -1.629000000     4.203000000    -1.147000000
O    -3.208000000     2.674000000    -2.644000000
H    -1.217000000     1.698000000    -2.432000000
C    -2.668000000    -0.535000000    -3.995000000
C    -3.987000000     0.067000000    -3.746000000
H    -4.795000000    -0.566000000    -4.118000000
H    -4.087000000     0.949000000    -4.382000000
C    -4.130000000     0.445000000    -2.261000000
C    -3.797000000     1.747000000    -1.819000000
C    -3.927000000     2.109000000    -0.485000000
H    -3.559000000     3.071000000    -0.140000000
C    -4.413000000     1.189000000     0.431000000
O    -4.339000000     1.485000000     1.779000000
C    -3.174000000     0.969000000     2.483000000
H    -2.392000000     0.648000000     1.779000000
C    -2.511000000     2.059000000     3.339000000
C    -1.666000000     1.737000000     4.386000000
H    -1.460000000     0.703000000     4.649000000
C    -2.526000000     3.372000000     2.940000000
H    -2.984000000     3.542000000     1.969000000
C    -1.947000000     4.372000000     3.737000000
O    -2.124000000     5.658000000     3.297000000
C    -1.165000000     4.063000000     4.800000000
H    -0.606000000     4.808000000     5.360000000
C    -1.032000000     2.702000000     5.140000000
O     0.062000000     2.421000000     5.950000000
C     0.015000000     1.241000000     6.691000000
C     1.113000000     0.415000000     6.509000000
H     1.901000000     0.760000000     5.845000000
C    -0.933000000     0.802000000     7.585000000
H    -1.731000000     1.489000000     7.854000000
C    -0.904000000    -0.443000000     8.194000000
H    -1.794000000    -0.714000000     8.756000000
C     0.192000000    -1.271000000     7.996000000
H     0.275000000    -2.218000000     8.524000000
C     1.264000000    -0.836000000     7.179000000
O     2.237000000    -1.782000000     6.833000000
C     2.409000000    -2.191000000     5.489000000
C     3.658000000    -2.249000000     4.930000000
H     4.452000000    -1.904000000     5.587000000
C     3.852000000    -2.574000000     3.600000000
O     5.084000000    -2.361000000     3.078000000
C     5.554000000    -2.989000000     1.889000000
C     6.016000000    -2.254000000     0.838000000
H     6.017000000    -1.173000000     0.955000000
C     5.563000000    -4.381000000     1.711000000
H     5.195000000    -5.057000000     2.479000000
C     5.930000000    -4.964000000     0.487000000
H     5.906000000    -6.040000000     0.331000000
C     6.323000000    -4.159000000    -0.571000000
H     6.532000000    -4.478000000    -1.589000000
C     6.361000000    -2.795000000    -0.377000000
O     6.441000000    -1.882000000    -1.435000000
C     5.394000000    -1.596000000    -2.256000000
C     5.676000000    -0.543000000    -3.153000000
H     6.667000000    -0.095000000    -3.149000000
C     4.629000000    -0.067000000    -3.984000000
O     5.066000000     1.062000000    -4.674000000
C     4.217000000     1.941000000    -5.368000000
C     3.619000000     2.984000000    -4.693000000
H     3.897000000     3.185000000    -3.661000000
C     3.792000000     1.620000000    -6.674000000
H     4.112000000     0.729000000    -7.208000000
C     2.896000000     2.427000000    -7.269000000
H     2.603000000     2.020000000    -8.233000000
C     2.297000000     3.530000000    -6.628000000
H     1.519000000     4.120000000    -7.105000000
C     2.661000000     3.784000000    -5.299000000
O     2.154000000     4.835000000    -4.600000000
C     0.994000000     4.806000000    -3.892000000
C     0.827000000     5.784000000    -2.893000000
H     1.531000000     6.597000000    -2.740000000
C    -0.282000000     5.607000000    -2.038000000
O    -0.522000000     6.585000000    -1.031000000
C    -1.556000000     6.510000000    -0.225000000
C    -2.783000000     7.100000000    -0.591000000
H    -2.892000000     7.591000000    -1.555000000
C    -3.864000000     7.084000000     0.250000000
H    -4.835000000     7.508000000     0.004000000
C    -3.618000000     6.568000000     1.569000000
H    -4.384000000     6.671000000     2.333000000
C    -2.335000000     6.036000000     1.954000000
C    -1.333000000     6.046000000     1.069000000
H    -0.346000000     5.633000000     1.263000000
C     0.788000000     2.449000000     1.727000000
H     0.608000000     3.486000000     1.997000000
C    -0.115000000     1.727000000     0.939000000
H    -0.925000000     2.321000000     0.523000000
C     0.136000000     0.412000000     0.540000000
C    -0.490000000    -0.206000000    -0.672000000
H    -0.177000000     0.273000000    -1.602000000
H    -0.120000000    -1.234000000    -0.683000000
H    -1.568000000    -0.282000000    -0.517000000
C     1.238000000    -0.255000000     1.107000000
H     1.520000000    -1.259000000     0.801000000
C     1.999000000     0.391000000     2.011000000
H     2.804000000    -0.124000000     2.529000000
C     1.832000000     1.735000000     2.312000000
C     2.875000000     2.498000000     3.142000000
O     3.818000000     1.956000000     3.649000000
O     2.881000000     3.727000000     3.123000000
O     7.557000000     4.090000000    -0.782000000
H     7.132000000     3.232000000    -0.807000000
H     7.282000000     4.469000000     0.053000000
O     6.090000000     1.163000000     2.587000000
H     6.821000000     1.049000000     3.194000000
H     5.376000000     1.496000000     3.131000000
O     4.987000000     3.079000000     5.560000000
H     4.499000000     2.908000000     4.755000000
H     5.052000000     4.033000000     5.603000000
O     3.485000000     6.816000000     6.615000000
H     4.309000000     6.618000000     6.171000000
H     3.606000000     7.700000000     6.962000000
O     4.679000000     1.026000000     7.397000000
H     5.309000000     0.433000000     6.988000000
H     4.626000000     1.770000000     6.797000000
O     7.506000000     4.156000000     6.845000000
H     7.303000000     4.722000000     6.101000000
H     7.184000000     3.293000000     6.585000000
O     3.183000000     1.524000000    -0.757000000
H     2.632000000     1.087000000    -0.107000000
H     2.564000000     1.885000000    -1.392000000
O     3.618000000     7.044000000     0.589000000
H     3.996000000     7.344000000    -0.237000000
H     3.596000000     6.090000000     0.510000000
O     1.681000000     6.095000000     4.625000000
H     2.020000000     5.295000000     4.224000000
H     2.411000000     6.430000000     5.145000000
O     4.251000000     3.526000000     8.619000000
H     3.781000000     3.905000000     7.876000000
H     4.461000000     2.635000000     8.340000000
O     7.191000000     5.756000000     1.282000000
H     7.147000000     6.703000000     1.155000000
H     6.347000000     5.527000000     1.673000000
O     4.026000000     8.381000000     2.880000000
H     3.161000000     8.738000000     3.077000000
H     3.936000000     8.004000000     2.004000000
O     2.011000000     3.986000000     7.011000000
H     2.122000000     4.758000000     6.457000000
H     1.830000000     3.274000000     6.397000000
O     4.789000000     5.615000000     2.982000000
H     4.185000000     4.873000000     3.015000000
H     4.247000000     6.351000000     2.697000000
O     6.474000000     1.630000000    -0.121000000
H     5.706000000     1.454000000    -0.665000000
H     6.149000000     1.571000000     0.777000000
O     5.994000000     6.043000000     5.354000000
H     6.580000000     6.784000000     5.198000000
H     5.756000000     5.737000000     4.479000000
O    -1.038000000     4.052000000     8.208000000
H    -0.239000000     4.265000000     8.689000000
H    -0.733000000     3.580000000     7.434000000
O     0.822000000     8.136000000     2.578000000
H    -0.045000000     8.502000000     2.752000000
H     0.822000000     7.294000000     3.034000000
O     3.493000000     4.427000000     0.226000000
H     3.562000000     3.652000000    -0.331000000
H     3.277000000     4.082000000     1.092000000
