218
-1413.13863
C    -5.212000000    -0.192000000    -0.053000000
H    -5.152000000     0.615000000    -0.778000000
C    -4.548000000    -0.169000000     1.181000000
C    -4.549000000    -1.381000000     1.887000000
H    -3.867000000    -1.472000000     2.728000000
C    -3.798000000     1.057000000     1.569000000
O    -4.258000000     2.240000000     0.918000000
H    -2.731000000     0.912000000     1.343000000
O    -3.840000000     1.274000000     2.946000000
C    -2.651000000     1.649000000     3.552000000
C    -2.004000000     0.673000000     4.199000000
H    -2.478000000    -0.292000000     4.364000000
C    -0.704000000     0.900000000     4.568000000
O    -0.008000000    -0.243000000     4.927000000
C    -0.031000000     2.160000000     4.365000000
C     1.457000000     2.278000000     4.730000000
H     1.629000000     3.329000000     4.974000000
C     2.440000000     1.934000000     3.643000000
C     3.006000000     2.885000000     2.808000000
H     2.681000000     3.920000000     2.869000000
H     1.686000000     1.741000000     5.653000000
C    -0.821000000     3.144000000     3.808000000
H    -0.360000000     4.117000000     3.661000000
C    -2.094000000     2.936000000     3.317000000
C    -2.799000000     4.119000000     2.603000000
H    -2.275000000     5.007000000     2.962000000
H    -3.807000000     4.036000000     3.015000000
C    -2.577000000     4.001000000     1.129000000
C    -1.627000000     4.784000000     0.514000000
H    -1.082000000     5.528000000     1.090000000
C    -3.314000000     3.094000000     0.375000000
C    -3.038000000     2.911000000    -0.979000000
H    -3.597000000     2.133000000    -1.493000000
C    -2.115000000     3.779000000    -1.622000000
O    -1.913000000     3.437000000    -2.913000000
C    -0.751000000     2.655000000    -3.277000000
C    -1.013000000     1.632000000    -4.377000000
C     0.032000000     1.185000000    -5.165000000
H     1.003000000     1.672000000    -5.119000000
C    -2.198000000     0.951000000    -4.380000000
H    -2.945000000     1.302000000    -3.673000000
O     0.397000000     3.490000000    -3.605000000
H    -0.377000000     2.185000000    -2.355000000
C    -1.329000000     4.618000000    -0.848000000
C    -0.156000000     5.305000000    -1.498000000
H    -0.002000000     6.297000000    -1.067000000
H    -0.443000000     5.498000000    -2.534000000
C     1.094000000     4.490000000    -1.614000000
C     2.020000000     4.460000000    -0.555000000
H     1.780000000     5.165000000     0.237000000
C     1.338000000     3.649000000    -2.684000000
C     2.501000000     2.782000000    -2.669000000
H     2.576000000     2.099000000    -3.512000000
C     3.425000000     2.864000000    -1.673000000
O     4.282000000     1.837000000    -1.604000000
C     3.902000000     0.695000000    -0.768000000
C     4.186000000    -0.534000000    -1.513000000
C     4.442000000    -0.510000000    -2.823000000
H     4.175000000     0.345000000    -3.440000000
C     4.354000000    -1.768000000    -0.823000000
H     4.012000000    -1.707000000     0.207000000
O     4.699000000     0.724000000     0.423000000
H     2.815000000     0.796000000    -0.627000000
C     3.170000000     3.672000000    -0.516000000
C     4.130000000     3.613000000     0.610000000
H     4.113000000     4.634000000     0.998000000
H     5.151000000     3.509000000     0.236000000
C     3.791000000     2.506000000     1.694000000
C     4.145000000     1.137000000     1.587000000
C     3.754000000     0.266000000     2.530000000
H     4.045000000    -0.779000000     2.478000000
C     2.827000000     0.609000000     3.467000000
O     2.274000000    -0.380000000     4.297000000
C     0.910000000    -0.828000000     4.056000000
H     0.463000000    -0.410000000     3.142000000
C     0.871000000    -2.389000000     4.019000000
C    -0.308000000    -2.963000000     4.475000000
H    -1.062000000    -2.350000000     4.961000000
C     1.988000000    -3.205000000     3.669000000
H     2.955000000    -2.793000000     3.391000000
C     1.796000000    -4.598000000     3.627000000
O     2.774000000    -5.390000000     3.101000000
C     0.533000000    -5.089000000     3.988000000
H     0.255000000    -6.131000000     3.849000000
C    -0.476000000    -4.366000000     4.536000000
O    -1.677000000    -4.898000000     5.148000000
C    -2.949000000    -4.277000000     5.041000000
C    -3.525000000    -4.257000000     3.777000000
H    -2.973000000    -4.618000000     2.913000000
C    -3.554000000    -3.693000000     6.122000000
H    -2.957000000    -3.568000000     7.021000000
C    -4.856000000    -3.271000000     6.063000000
H    -5.379000000    -2.876000000     6.930000000
C    -5.469000000    -3.369000000     4.815000000
H    -6.435000000    -2.881000000     4.711000000
C    -4.779000000    -3.722000000     3.629000000
O    -5.402000000    -3.550000000     2.383000000
C    -5.303000000    -2.477000000     1.523000000
C    -6.041000000    -2.448000000     0.375000000
H    -6.720000000    -3.285000000     0.235000000
C    -5.961000000    -1.319000000    -0.439000000
O    -6.552000000    -1.386000000    -1.629000000
C    -6.192000000    -0.672000000    -2.726000000
C    -5.130000000    -1.123000000    -3.549000000
H    -4.572000000    -2.010000000    -3.261000000
C    -6.941000000     0.437000000    -3.128000000
H    -7.725000000     0.827000000    -2.485000000
C    -6.547000000     1.134000000    -4.287000000
H    -6.997000000     2.099000000    -4.506000000
C    -5.428000000     0.808000000    -5.049000000
H    -5.229000000     1.412000000    -5.931000000
C    -4.749000000    -0.356000000    -4.648000000
O    -3.643000000    -0.746000000    -5.328000000
C    -2.422000000    -0.209000000    -5.170000000
C    -1.321000000    -0.642000000    -5.939000000
H    -1.405000000    -1.408000000    -6.706000000
C    -0.124000000     0.070000000    -5.891000000
O     0.914000000    -0.274000000    -6.769000000
C     2.275000000    -0.123000000    -6.623000000
C     2.903000000    -0.937000000    -5.625000000
H     2.268000000    -1.438000000    -4.899000000
C     2.963000000     0.614000000    -7.499000000
H     2.342000000     1.208000000    -8.165000000
C     4.344000000     0.692000000    -7.525000000
H     4.841000000     1.378000000    -8.205000000
C     5.039000000    -0.114000000    -6.618000000
H     6.123000000    -0.104000000    -6.536000000
C     4.290000000    -0.985000000    -5.742000000
O     5.029000000    -1.744000000    -4.883000000
C     4.895000000    -1.660000000    -3.523000000
C     5.121000000    -2.829000000    -2.839000000
H     5.476000000    -3.646000000    -3.462000000
C     4.895000000    -2.906000000    -1.461000000
O     5.033000000    -4.055000000    -0.800000000
C     5.096000000    -4.184000000     0.579000000
C     6.196000000    -3.980000000     1.325000000
H     7.115000000    -3.662000000     0.837000000
C     6.160000000    -4.243000000     2.657000000
H     7.094000000    -4.147000000     3.205000000
C     5.025000000    -4.700000000     3.306000000
H     5.081000000    -4.977000000     4.356000000
C     3.901000000    -4.923000000     2.529000000
C     3.924000000    -4.558000000     1.203000000
H     3.094000000    -4.657000000     0.509000000
C    -0.163000000    -2.694000000     0.014000000
H     0.276000000    -3.654000000     0.272000000
C     0.405000000    -1.504000000     0.474000000
H     1.328000000    -1.658000000     1.027000000
C    -0.049000000    -0.252000000     0.113000000
C     0.438000000     1.106000000     0.601000000
H     0.249000000     1.813000000    -0.210000000
H    -0.023000000     1.400000000     1.546000000
H     1.498000000     0.963000000     0.822000000
C    -1.258000000    -0.160000000    -0.581000000
H    -1.713000000     0.813000000    -0.748000000
C    -1.880000000    -1.330000000    -0.984000000
H    -2.875000000    -1.325000000    -1.423000000
C    -1.322000000    -2.621000000    -0.785000000
C    -2.068000000    -3.856000000    -1.169000000
O    -3.079000000    -3.865000000    -1.834000000
O    -1.559000000    -4.898000000    -0.839000000
O    -0.107000000    -3.744000000    -5.672000000
H    -0.916000000    -3.758000000    -5.162000000
H    -0.376000000    -3.444000000    -6.541000000
O    -5.781000000    -4.902000000    -2.323000000
H    -6.196000000    -4.265000000    -2.904000000
H    -5.009000000    -4.449000000    -1.983000000
O     3.393000000    -7.945000000    -0.753000000
H     3.123000000    -8.852000000    -0.899000000
H     2.595000000    -7.434000000    -0.880000000
O     1.401000000    -2.081000000    -2.594000000
H     0.691000000    -1.574000000    -2.988000000
H     1.156000000    -2.159000000    -1.672000000
O     0.721000000    -8.720000000    -2.977000000
H     0.359000000    -7.834000000    -2.946000000
H     0.068000000    -9.261000000    -2.532000000
O    -4.401000000    -8.817000000    -3.254000000
H    -4.223000000    -8.072000000    -2.679000000
H    -5.294000000    -9.082000000    -3.033000000
O     0.912000000    -8.940000000     1.164000000
H     0.078000000    -8.937000000     1.633000000
H     1.550000000    -9.242000000     1.810000000
O     2.307000000    -4.585000000    -2.887000000
H     1.501000000    -5.011000000    -3.177000000
H     2.183000000    -3.662000000    -3.106000000
O    -2.604000000    -3.955000000    -4.364000000
H    -2.807000000    -4.024000000    -3.431000000
H    -3.356000000    -3.499000000    -4.740000000
O    -3.344000000    -9.311000000    -0.158000000
H    -3.341000000    -9.140000000     0.784000000
H    -3.439000000    -8.447000000    -0.559000000
O    -6.424000000    -7.839000000    -0.099000000
H    -7.047000000    -7.241000000    -0.512000000
H    -6.234000000    -7.438000000     0.750000000
O    -5.763000000    -6.271000000     2.352000000
H    -6.522000000    -6.270000000     2.935000000
H    -5.370000000    -5.406000000     2.470000000
O    -1.143000000    -9.032000000     2.997000000
H    -1.030000000    -9.343000000     3.895000000
H    -1.173000000    -8.079000000     3.075000000
O     1.231000000    -6.104000000    -6.001000000
H     0.811000000    -5.269000000    -5.794000000
H     0.564000000    -6.596000000    -6.479000000
O    -1.424000000    -6.326000000     1.520000000
H    -1.580000000    -5.964000000     0.648000000
H    -0.491000000    -6.541000000     1.526000000
O    -0.093000000    -5.967000000    -2.962000000
H    -0.856000000    -6.361000000    -3.386000000
H    -0.462000000    -5.387000000    -2.296000000
O    -4.428000000    -8.989000000     2.740000000
H    -4.674000000    -8.138000000     2.379000000
H    -3.960000000    -8.780000000     3.549000000
O    -3.520000000    -6.873000000    -1.646000000
H    -4.169000000    -6.274000000    -2.014000000
H    -2.882000000    -6.302000000    -1.218000000
O    -8.161000000    -6.004000000    -1.168000000
H    -8.902000000    -5.659000000    -1.666000000
H    -7.418000000    -5.466000000    -1.442000000
