218
-1455.43525
C    -5.555000000    -0.670000000     0.123000000
H    -5.746000000     0.278000000    -0.372000000
C    -4.673000000    -0.709000000     1.231000000
C    -4.327000000    -1.902000000     1.728000000
H    -3.469000000    -1.833000000     2.392000000
C    -3.937000000     0.540000000     1.657000000
O    -4.519000000     1.722000000     1.066000000
H    -2.968000000     0.497000000     1.138000000
O    -3.676000000     0.668000000     3.093000000
C    -2.422000000     1.227000000     3.505000000
C    -1.633000000     0.380000000     4.227000000
H    -1.937000000    -0.645000000     4.421000000
C    -0.363000000     0.794000000     4.647000000
O     0.532000000    -0.171000000     5.065000000
C     0.003000000     2.117000000     4.431000000
C     1.378000000     2.681000000     4.830000000
H     1.438000000     3.727000000     5.136000000
C     2.457000000     2.486000000     3.817000000
C     2.606000000     3.415000000     2.833000000
H     1.964000000     4.281000000     2.968000000
H     1.700000000     2.143000000     5.724000000
C    -0.857000000     2.998000000     3.814000000
H    -0.669000000     4.044000000     3.585000000
C    -2.096000000     2.592000000     3.328000000
C    -3.098000000     3.558000000     2.805000000
H    -2.930000000     4.529000000     3.274000000
H    -4.104000000     3.317000000     3.155000000
C    -3.091000000     3.654000000     1.257000000
C    -2.228000000     4.567000000     0.654000000
H    -1.702000000     5.251000000     1.314000000
C    -3.737000000     2.705000000     0.494000000
C    -3.658000000     2.726000000    -0.897000000
H    -4.156000000     1.995000000    -1.529000000
C    -2.814000000     3.629000000    -1.504000000
O    -2.559000000     3.431000000    -2.877000000
C    -1.442000000     2.633000000    -3.264000000
C    -1.817000000     1.571000000    -4.328000000
C    -0.747000000     0.897000000    -5.024000000
H     0.289000000     1.103000000    -4.768000000
C    -3.112000000     1.147000000    -4.526000000
H    -3.888000000     1.624000000    -3.931000000
O    -0.320000000     3.461000000    -3.584000000
H    -1.203000000     2.039000000    -2.370000000
C    -2.030000000     4.558000000    -0.686000000
C    -0.956000000     5.450000000    -1.312000000
H    -0.808000000     6.410000000    -0.813000000
H    -1.318000000     5.843000000    -2.264000000
C     0.408000000     4.697000000    -1.527000000
C     1.384000000     4.836000000    -0.498000000
H     1.053000000     5.409000000     0.364000000
C     0.577000000     3.731000000    -2.547000000
C     1.832000000     3.036000000    -2.613000000
H     2.033000000     2.289000000    -3.376000000
C     2.849000000     3.272000000    -1.657000000
O     4.000000000     2.463000000    -1.617000000
C     4.019000000     1.420000000    -0.604000000
C     4.460000000     0.058000000    -1.170000000
C     3.768000000    -0.446000000    -2.352000000
H     3.045000000     0.144000000    -2.910000000
C     5.491000000    -0.709000000    -0.644000000
H     6.111000000    -0.341000000     0.169000000
O     4.967000000     1.736000000     0.503000000
H     2.997000000     1.273000000    -0.224000000
C     2.612000000     4.187000000    -0.573000000
C     3.591000000     4.249000000     0.679000000
H     3.440000000     5.220000000     1.156000000
H     4.640000000     4.319000000     0.383000000
C     3.426000000     3.228000000     1.672000000
C     4.223000000     2.027000000     1.590000000
C     4.090000000     1.064000000     2.604000000
H     4.594000000     0.102000000     2.584000000
C     3.147000000     1.249000000     3.633000000
O     2.788000000     0.127000000     4.387000000
C     1.535000000    -0.509000000     4.091000000
H     1.267000000    -0.218000000     3.064000000
C     1.826000000    -2.067000000     4.009000000
C     0.775000000    -2.934000000     4.165000000
H    -0.240000000    -2.618000000     4.394000000
C     3.086000000    -2.573000000     3.739000000
H     3.921000000    -1.896000000     3.578000000
C     3.250000000    -3.928000000     3.530000000
O     4.382000000    -4.561000000     3.157000000
C     2.193000000    -4.832000000     3.568000000
H     2.433000000    -5.884000000     3.442000000
C     0.888000000    -4.326000000     3.792000000
O    -0.259000000    -5.137000000     3.735000000
C    -1.567000000    -4.775000000     3.750000000
C    -2.381000000    -4.910000000     2.574000000
H    -1.961000000    -5.151000000     1.601000000
C    -2.153000000    -4.540000000     5.012000000
H    -1.558000000    -4.438000000     5.917000000
C    -3.522000000    -4.150000000     5.041000000
H    -3.976000000    -3.754000000     5.945000000
C    -4.283000000    -4.133000000     3.893000000
H    -5.347000000    -3.923000000     3.962000000
C    -3.713000000    -4.552000000     2.643000000
O    -4.496000000    -4.372000000     1.518000000
C    -4.901000000    -3.068000000     1.155000000
C    -5.761000000    -3.044000000     0.096000000
H    -6.138000000    -3.911000000    -0.441000000
C    -6.091000000    -1.804000000    -0.415000000
O    -7.030000000    -1.725000000    -1.455000000
C    -6.850000000    -0.972000000    -2.575000000
C    -5.699000000    -1.086000000    -3.365000000
H    -4.815000000    -1.658000000    -3.094000000
C    -7.973000000    -0.201000000    -2.966000000
H    -8.881000000    -0.192000000    -2.368000000
C    -7.875000000     0.569000000    -4.159000000
H    -8.736000000     1.136000000    -4.505000000
C    -6.710000000     0.460000000    -4.937000000
H    -6.586000000     0.952000000    -5.898000000
C    -5.647000000    -0.318000000    -4.537000000
O    -4.629000000    -0.518000000    -5.454000000
C    -3.415000000     0.126000000    -5.381000000
C    -2.345000000    -0.430000000    -6.124000000
H    -2.621000000    -1.228000000    -6.809000000
C    -1.059000000    -0.022000000    -5.957000000
O    -0.080000000    -0.589000000    -6.771000000
C     1.242000000    -0.695000000    -6.424000000
C     1.679000000    -1.419000000    -5.286000000
H     0.922000000    -1.897000000    -4.670000000
C     2.174000000    -0.209000000    -7.347000000
H     1.716000000     0.270000000    -8.208000000
C     3.566000000    -0.297000000    -7.030000000
H     4.321000000     0.080000000    -7.715000000
C     3.990000000    -0.929000000    -5.843000000
H     5.055000000    -0.975000000    -5.629000000
C     3.043000000    -1.538000000    -5.018000000
O     3.450000000    -2.328000000    -3.924000000
C     4.055000000    -1.761000000    -2.798000000
C     5.032000000    -2.518000000    -2.232000000
H     5.234000000    -3.499000000    -2.654000000
C     5.833000000    -1.934000000    -1.210000000
O     6.739000000    -2.701000000    -0.582000000
C     6.580000000    -3.095000000     0.725000000
C     7.770000000    -3.001000000     1.433000000
H     8.660000000    -2.613000000     0.943000000
C     7.846000000    -3.599000000     2.696000000
H     8.805000000    -3.682000000     3.203000000
C     6.645000000    -3.942000000     3.327000000
H     6.772000000    -4.204000000     4.374000000
C     5.450000000    -3.925000000     2.653000000
C     5.391000000    -3.605000000     1.305000000
H     4.489000000    -3.681000000     0.703000000
C     0.073000000    -2.916000000     0.204000000
H     0.523000000    -3.808000000     0.631000000
C     0.328000000    -1.673000000     0.868000000
H     1.106000000    -1.544000000     1.616000000
C    -0.244000000    -0.530000000     0.317000000
C     0.110000000     0.833000000     0.845000000
H    -0.031000000     1.646000000     0.130000000
H    -0.552000000     1.011000000     1.695000000
H     1.180000000     0.867000000     1.059000000
C    -0.923000000    -0.609000000    -0.889000000
H    -1.313000000     0.320000000    -1.297000000
C    -1.178000000    -1.796000000    -1.609000000
H    -1.717000000    -1.742000000    -2.551000000
C    -0.736000000    -2.984000000    -0.962000000
C    -1.122000000    -4.289000000    -1.590000000
O    -1.975000000    -4.418000000    -2.417000000
O    -0.342000000    -5.234000000    -1.371000000
O    -1.121000000    -5.216000000    -7.840000000
H    -1.073000000    -4.348000000    -7.441000000
H    -1.712000000    -5.106000000    -8.585000000
O     1.456000000    -6.296000000    -6.900000000
H     0.989000000    -6.218000000    -6.068000000
H     1.248000000    -5.487000000    -7.368000000
O    -0.021000000    -8.721000000    -5.677000000
H     0.828000000    -8.839000000    -6.102000000
H    -0.258000000    -7.812000000    -5.864000000
O    -0.237000000   -10.130000000    -3.302000000
H     0.690000000   -10.330000000    -3.167000000
H    -0.260000000    -9.652000000    -4.131000000
O     0.079000000    -5.689000000    -4.503000000
H    -0.297000000    -4.810000000    -4.550000000
H     0.093000000    -5.894000000    -3.568000000
O    -3.750000000    -8.623000000    -5.885000000
H    -4.553000000    -8.118000000    -5.757000000
H    -3.191000000    -8.375000000    -5.149000000
O     2.412000000    -6.838000000     0.725000000
H     2.256000000    -6.949000000     1.663000000
H     2.804000000    -7.666000000     0.448000000
O    -4.664000000    -3.274000000    -6.309000000
H    -4.446000000    -2.347000000    -6.412000000
H    -5.515000000    -3.272000000    -5.871000000
O     3.392000000    -6.003000000    -3.575000000
H     2.981000000    -5.649000000    -2.786000000
H     4.257000000    -5.595000000    -3.598000000
O    -2.164000000    -3.744000000    -5.103000000
H    -2.463000000    -3.797000000    -4.196000000
H    -2.943000000    -3.940000000    -5.624000000
O    -5.994000000    -5.963000000    -4.832000000
H    -6.604000000    -6.682000000    -4.668000000
H    -5.608000000    -5.776000000    -3.976000000
O    -5.110000000    -7.477000000     1.151000000
H    -5.815000000    -7.319000000     0.523000000
H    -4.676000000    -6.629000000     1.243000000
O    -0.525000000    -9.785000000     1.590000000
H    -1.475000000    -9.795000000     1.476000000
H    -0.258000000    -8.912000000     1.301000000
O    -0.273000000    -7.489000000    -0.122000000
H    -0.405000000    -6.708000000    -0.660000000
H     0.498000000    -7.287000000     0.407000000
O     2.541000000    -4.955000000    -1.226000000
H     1.664000000    -4.573000000    -1.260000000
H     2.473000000    -5.654000000    -0.575000000
O    -3.369000000    -9.610000000     1.303000000
H    -3.171000000    -9.743000000     0.376000000
H    -4.021000000    -8.909000000     1.310000000
O    -3.039000000    -7.393000000    -3.332000000
H    -3.508000000    -6.657000000    -2.938000000
H    -2.145000000    -7.072000000    -3.450000000
O    -3.028000000    -9.345000000    -1.406000000
H    -2.102000000    -9.587000000    -1.429000000
H    -3.173000000    -8.872000000    -2.226000000
O    -4.419000000    -5.084000000    -2.601000000
H    -4.857000000    -4.241000000    -2.486000000
H    -3.486000000    -4.871000000    -2.602000000
