218
-1490.81002
C     3.300000000    -2.440000000     3.756000000
H     3.748000000    -3.124000000     3.040000000
C     1.872000000    -2.272000000     3.883000000
C     1.342000000    -1.334000000     4.771000000
H     0.267000000    -1.394000000     4.925000000
C     0.953000000    -3.152000000     3.069000000
O     1.506000000    -4.310000000     2.469000000
H     0.572000000    -2.473000000     2.293000000
O    -0.223000000    -3.531000000     3.815000000
C    -1.400000000    -3.411000000     3.204000000
C    -2.092000000    -2.272000000     3.469000000
H    -1.870000000    -1.666000000     4.343000000
C    -3.216000000    -1.946000000     2.765000000
O    -3.863000000    -0.776000000     3.119000000
C    -3.625000000    -2.761000000     1.666000000
C    -4.852000000    -2.494000000     0.906000000
H    -5.067000000    -3.482000000     0.493000000
C    -4.585000000    -1.560000000    -0.253000000
C    -4.437000000    -1.964000000    -1.584000000
H    -4.381000000    -3.022000000    -1.824000000
H    -5.693000000    -2.018000000     1.414000000
C    -2.888000000    -3.908000000     1.351000000
H    -3.147000000    -4.599000000     0.553000000
C    -1.821000000    -4.267000000     2.141000000
C    -1.007000000    -5.440000000     1.682000000
H    -1.632000000    -6.234000000     1.269000000
H    -0.500000000    -5.882000000     2.542000000
C     0.080000000    -4.961000000     0.683000000
C    -0.165000000    -5.005000000    -0.715000000
H    -1.136000000    -5.393000000    -1.014000000
C     1.283000000    -4.461000000     1.109000000
C     2.239000000    -3.856000000     0.222000000
H     3.206000000    -3.424000000     0.466000000
C     1.921000000    -3.839000000    -1.131000000
O     2.851000000    -3.242000000    -1.918000000
C     2.389000000    -2.042000000    -2.518000000
C     3.449000000    -0.946000000    -2.549000000
C     3.914000000    -0.282000000    -3.685000000
H     3.507000000    -0.519000000    -4.664000000
C     3.932000000    -0.577000000    -1.311000000
H     3.656000000    -1.081000000    -0.388000000
O     2.066000000    -2.339000000    -3.869000000
H     1.458000000    -1.709000000    -2.035000000
C     0.749000000    -4.475000000    -1.633000000
C     0.423000000    -4.591000000    -3.091000000
H    -0.303000000    -5.398000000    -3.215000000
H     1.333000000    -4.900000000    -3.609000000
C    -0.192000000    -3.340000000    -3.611000000
C    -1.561000000    -3.183000000    -3.710000000
H    -2.155000000    -4.039000000    -3.402000000
C     0.652000000    -2.316000000    -4.093000000
C     0.164000000    -1.077000000    -4.473000000
H     0.871000000    -0.270000000    -4.648000000
C    -1.219000000    -0.898000000    -4.512000000
O    -1.653000000     0.399000000    -4.593000000
C    -1.951000000     1.213000000    -3.483000000
C    -1.502000000     2.659000000    -3.778000000
C    -0.292000000     2.882000000    -4.547000000
H     0.153000000     2.065000000    -5.109000000
C    -1.974000000     3.684000000    -2.982000000
H    -2.859000000     3.483000000    -2.384000000
O    -3.375000000     1.126000000    -3.225000000
H    -1.399000000     0.818000000    -2.617000000
C    -2.061000000    -1.938000000    -4.073000000
C    -3.495000000    -1.679000000    -3.917000000
H    -3.964000000    -2.618000000    -4.217000000
H    -3.795000000    -0.934000000    -4.658000000
C    -3.937000000    -1.134000000    -2.570000000
C    -3.787000000     0.202000000    -2.261000000
C    -4.124000000     0.681000000    -0.989000000
H    -3.923000000     1.724000000    -0.759000000
C    -4.597000000    -0.177000000     0.005000000
O    -4.822000000     0.404000000     1.238000000
C    -3.708000000     0.348000000     2.221000000
H    -2.718000000     0.227000000     1.756000000
C    -3.468000000     1.703000000     2.986000000
C    -3.164000000     1.705000000     4.376000000
H    -3.317000000     0.761000000     4.894000000
C    -3.471000000     2.902000000     2.270000000
H    -3.658000000     2.913000000     1.199000000
C    -3.187000000     4.080000000     2.934000000
O    -3.095000000     5.299000000     2.251000000
C    -2.817000000     4.079000000     4.265000000
H    -2.591000000     5.039000000     4.722000000
C    -2.894000000     2.908000000     5.044000000
O    -2.584000000     2.786000000     6.336000000
C    -1.751000000     1.802000000     6.733000000
C    -0.503000000     1.628000000     6.181000000
H    -0.322000000     2.338000000     5.378000000
C    -2.162000000     0.989000000     7.797000000
H    -3.199000000     1.028000000     8.122000000
C    -1.365000000     0.033000000     8.271000000
H    -1.607000000    -0.553000000     9.154000000
C    -0.073000000    -0.155000000     7.746000000
H     0.650000000    -0.884000000     8.101000000
C     0.373000000     0.634000000     6.681000000
O     1.669000000     0.516000000     6.252000000
C     2.138000000    -0.502000000     5.474000000
C     3.539000000    -0.604000000     5.296000000
H     4.176000000     0.124000000     5.792000000
C     4.103000000    -1.549000000     4.400000000
O     5.477000000    -1.563000000     4.205000000
C     5.985000000    -1.415000000     2.931000000
C     5.538000000    -0.390000000     2.060000000
H     4.704000000     0.216000000     2.404000000
C     7.101000000    -2.166000000     2.530000000
H     7.637000000    -2.788000000     3.242000000
C     7.639000000    -2.048000000     1.221000000
H     8.381000000    -2.757000000     0.864000000
C     7.153000000    -1.082000000     0.340000000
H     7.646000000    -0.986000000    -0.624000000
C     6.048000000    -0.308000000     0.738000000
O     5.598000000     0.677000000    -0.068000000
C     4.938000000     0.374000000    -1.286000000
C     5.417000000     1.027000000    -2.394000000
H     6.232000000     1.739000000    -2.291000000
C     4.885000000     0.703000000    -3.585000000
O     5.159000000     1.473000000    -4.713000000
C     4.212000000     2.041000000    -5.514000000
C     3.212000000     2.823000000    -4.984000000
H     3.104000000     2.904000000    -3.905000000
C     4.380000000     1.990000000    -6.898000000
H     5.205000000     1.424000000    -7.325000000
C     3.486000000     2.678000000    -7.729000000
H     3.658000000     2.501000000    -8.788000000
C     2.476000000     3.471000000    -7.194000000
H     1.827000000     4.025000000    -7.868000000
C     2.327000000     3.538000000    -5.799000000
O     1.475000000     4.458000000    -5.162000000
C     0.282000000     4.178000000    -4.587000000
C    -0.340000000     5.211000000    -3.828000000
H     0.135000000     6.188000000    -3.823000000
C    -1.457000000     4.979000000    -3.049000000
O    -1.836000000     6.051000000    -2.236000000
C    -2.806000000     5.963000000    -1.296000000
C    -4.100000000     6.058000000    -1.770000000
H    -4.370000000     6.234000000    -2.808000000
C    -5.098000000     5.929000000    -0.782000000
H    -6.142000000     6.056000000    -1.056000000
C    -4.743000000     5.678000000     0.585000000
H    -5.508000000     5.577000000     1.351000000
C    -3.430000000     5.538000000     0.936000000
C    -2.440000000     5.625000000     0.035000000
H    -1.367000000     5.564000000     0.197000000
C     1.473000000     2.077000000    -0.642000000
H     1.729000000     2.777000000    -1.433000000
C     0.827000000     0.888000000    -0.929000000
H     0.741000000     0.623000000    -1.980000000
C     0.147000000     0.163000000     0.041000000
C    -0.649000000    -1.046000000    -0.239000000
H    -1.052000000    -0.969000000    -1.251000000
H     0.072000000    -1.866000000    -0.246000000
H    -1.482000000    -1.213000000     0.445000000
C     0.180000000     0.676000000     1.292000000
H    -0.377000000     0.206000000     2.099000000
C     0.790000000     1.878000000     1.613000000
H     0.829000000     2.139000000     2.667000000
C     1.515000000     2.521000000     0.677000000
C     2.180000000     3.811000000     1.040000000
O     1.877000000     4.328000000     2.080000000
O     3.093000000     4.228000000     0.321000000
O     3.218000000     3.340000000     5.791000000
H     3.281000000     4.222000000     6.157000000
H     3.758000000     2.801000000     6.368000000
O    -0.411000000     5.165000000     6.822000000
H    -0.967000000     4.406000000     6.997000000
H     0.161000000     4.884000000     6.108000000
O     3.540000000     9.558000000     1.639000000
H     3.497000000     8.768000000     2.177000000
H     3.943000000    10.214000000     2.208000000
O     6.803000000     5.482000000     4.107000000
H     5.991000000     5.979000000     4.208000000
H     6.534000000     4.566000000     4.186000000
O     1.307000000     7.613000000     4.762000000
H     0.523000000     7.241000000     4.358000000
H     1.104000000     8.543000000     4.867000000
O     0.661000000     7.762000000     0.608000000
H    -0.047000000     7.574000000     1.223000000
H     1.462000000     7.594000000     1.106000000
O     7.941000000     3.730000000    -0.920000000
H     8.553000000     4.422000000    -1.171000000
H     7.252000000     4.184000000    -0.435000000
O     2.568000000     6.774000000    -4.165000000
H     2.374000000     6.607000000    -3.243000000
H     2.791000000     5.915000000    -4.523000000
O    -1.049000000     8.908000000    -1.422000000
H    -0.367000000     8.314000000    -1.111000000
H    -1.686000000     8.936000000    -0.708000000
O    -0.820000000     7.216000000     2.655000000
H    -1.190000000     6.354000000     2.463000000
H    -1.580000000     7.795000000     2.712000000
O     2.907000000     7.023000000     2.447000000
H     2.692000000     6.092000000     2.384000000
H     2.578000000     7.287000000     3.306000000
O     0.924000000     4.301000000     4.423000000
H     1.678000000     4.012000000     4.937000000
H     1.275000000     4.447000000     3.544000000
O     4.727000000     7.516000000     0.165000000
H     4.683000000     8.386000000     0.561000000
H     3.967000000     7.053000000     0.517000000
O     6.778000000     5.788000000     0.538000000
H     6.218000000     6.467000000     0.163000000
H     6.172000000     5.195000000     0.981000000
O     5.279000000     3.087000000     3.771000000
H     4.378000000     3.358000000     3.947000000
H     5.342000000     3.073000000     2.816000000
O     5.521000000     3.392000000     1.045000000
H     5.802000000     2.515000000     0.781000000
H     4.596000000     3.429000000     0.802000000
O     5.740000000     6.561000000    -2.678000000
H     5.576000000     7.080000000    -1.890000000
H     5.579000000     5.657000000    -2.407000000
O     4.714000000     4.158000000    -1.854000000
H     3.999000000     4.593000000    -1.389000000
H     5.164000000     3.649000000    -1.180000000
O     2.147000000     6.215000000    -1.402000000
H     1.470000000     6.748000000    -0.985000000
H     2.230000000     5.447000000    -0.837000000
