218
-1472.07492
C     2.601000000    -0.607000000     4.873000000
H     2.965000000    -1.548000000     4.469000000
C     1.284000000    -0.400000000     4.788000000
C     0.707000000     0.728000000     5.262000000
H    -0.364000000     0.858000000     5.133000000
C     0.431000000    -1.422000000     4.079000000
O     0.953000000    -2.759000000     4.061000000
H     0.386000000    -1.177000000     3.008000000
O    -0.961000000    -1.434000000     4.548000000
C    -2.023000000    -1.642000000     3.735000000
C    -2.807000000    -0.510000000     3.477000000
H    -2.574000000     0.408000000     4.012000000
C    -3.797000000    -0.590000000     2.555000000
O    -4.385000000     0.619000000     2.273000000
C    -4.110000000    -1.769000000     1.906000000
C    -5.241000000    -1.825000000     0.924000000
H    -5.654000000    -2.831000000     0.834000000
C    -4.808000000    -1.434000000    -0.522000000
C    -4.244000000    -2.409000000    -1.358000000
H    -4.345000000    -3.450000000    -1.060000000
H    -6.047000000    -1.236000000     1.367000000
C    -3.462000000    -2.916000000     2.260000000
H    -3.717000000    -3.858000000     1.780000000
C    -2.439000000    -2.857000000     3.166000000
C    -1.560000000    -4.088000000     3.472000000
H    -2.174000000    -4.944000000     3.184000000
H    -1.333000000    -4.143000000     4.539000000
C    -0.330000000    -4.132000000     2.572000000
C    -0.416000000    -4.689000000     1.321000000
H    -1.367000000    -5.121000000     1.020000000
C     0.918000000    -3.617000000     2.982000000
C     1.973000000    -3.613000000     2.097000000
H     2.922000000    -3.189000000     2.414000000
C     1.877000000    -4.180000000     0.804000000
O     2.939000000    -3.993000000    -0.074000000
C     2.722000000    -2.937000000    -1.002000000
C     3.934000000    -1.994000000    -1.091000000
C     4.051000000    -1.323000000    -2.345000000
H     3.383000000    -1.582000000    -3.162000000
C     4.659000000    -1.607000000     0.091000000
H     4.448000000    -2.177000000     0.992000000
O     2.446000000    -3.572000000    -2.222000000
H     1.834000000    -2.323000000    -0.787000000
C     0.674000000    -4.757000000     0.424000000
C     0.585000000    -5.455000000    -0.916000000
H    -0.121000000    -6.287000000    -0.948000000
H     1.549000000    -5.866000000    -1.224000000
C     0.158000000    -4.430000000    -1.909000000
C    -1.206000000    -4.280000000    -2.221000000
H    -1.908000000    -4.953000000    -1.737000000
C     1.084000000    -3.658000000    -2.622000000
C     0.704000000    -2.720000000    -3.565000000
H     1.376000000    -1.994000000    -4.015000000
C    -0.662000000    -2.600000000    -3.912000000
O    -1.117000000    -1.554000000    -4.690000000
C    -1.360000000    -0.327000000    -3.968000000
C    -0.736000000     0.952000000    -4.633000000
C     0.299000000     0.915000000    -5.572000000
H     0.730000000    -0.032000000    -5.888000000
C    -1.159000000     2.206000000    -4.165000000
H    -1.972000000     2.366000000    -3.462000000
O    -2.806000000    -0.172000000    -3.958000000
H    -1.123000000    -0.350000000    -2.894000000
C    -1.610000000    -3.339000000    -3.176000000
C    -3.076000000    -3.175000000    -3.418000000
H    -3.559000000    -4.101000000    -3.099000000
H    -3.302000000    -3.057000000    -4.480000000
C    -3.566000000    -2.044000000    -2.549000000
C    -3.520000000    -0.704000000    -2.915000000
C    -4.211000000     0.229000000    -2.186000000
H    -4.101000000     1.235000000    -2.584000000
C    -4.833000000    -0.146000000    -1.001000000
O    -5.178000000     0.813000000    -0.045000000
C    -4.108000000     1.124000000     0.906000000
H    -3.178000000     0.622000000     0.602000000
C    -3.668000000     2.581000000     0.934000000
C    -2.983000000     3.042000000     2.008000000
H    -2.676000000     2.319000000     2.759000000
C    -4.096000000     3.502000000     0.025000000
H    -4.688000000     3.187000000    -0.831000000
C    -3.701000000     4.821000000     0.133000000
O    -4.139000000     5.709000000    -0.794000000
C    -2.990000000     5.277000000     1.202000000
H    -2.759000000     6.337000000     1.270000000
C    -2.607000000     4.380000000     2.189000000
O    -1.957000000     4.769000000     3.265000000
C    -1.753000000     4.164000000     4.554000000
C    -0.427000000     3.953000000     4.966000000
H     0.493000000     4.172000000     4.429000000
C    -2.869000000     3.697000000     5.284000000
H    -3.885000000     3.887000000     4.949000000
C    -2.638000000     2.918000000     6.399000000
H    -3.490000000     2.431000000     6.867000000
C    -1.319000000     2.579000000     6.758000000
H    -1.143000000     1.919000000     7.604000000
C    -0.235000000     3.179000000     6.106000000
O     0.997000000     2.870000000     6.463000000
C     1.524000000     1.660000000     5.939000000
C     2.862000000     1.513000000     6.081000000
H     3.547000000     2.250000000     6.493000000
C     3.408000000     0.314000000     5.540000000
O     4.812000000     0.068000000     5.712000000
C     5.651000000    -0.343000000     4.717000000
C     5.425000000     0.024000000     3.360000000
H     4.694000000     0.804000000     3.162000000
C     6.692000000    -1.245000000     5.059000000
H     6.942000000    -1.472000000     6.092000000
C     7.439000000    -1.719000000     3.981000000
H     8.236000000    -2.427000000     4.197000000
C     7.267000000    -1.291000000     2.675000000
H     7.861000000    -1.656000000     1.841000000
C     6.306000000    -0.383000000     2.308000000
O     6.149000000     0.070000000     1.022000000
C     5.564000000    -0.556000000    -0.038000000
C     5.657000000     0.091000000    -1.219000000
H     6.097000000     1.076000000    -1.352000000
C     4.984000000    -0.328000000    -2.339000000
O     5.161000000     0.530000000    -3.412000000
C     4.590000000     0.442000000    -4.677000000
C     3.545000000     1.244000000    -5.090000000
H     3.199000000     1.995000000    -4.384000000
C     5.151000000    -0.496000000    -5.576000000
H     5.923000000    -1.243000000    -5.411000000
C     4.678000000    -0.495000000    -6.872000000
H     5.146000000    -1.197000000    -7.557000000
C     3.690000000     0.368000000    -7.323000000
H     3.365000000     0.410000000    -8.360000000
C     3.094000000     1.223000000    -6.419000000
O     2.126000000     2.140000000    -6.692000000
C     0.941000000     2.104000000    -6.008000000
C     0.498000000     3.336000000    -5.512000000
H     1.004000000     4.242000000    -5.833000000
C    -0.603000000     3.300000000    -4.675000000
O    -1.008000000     4.559000000    -4.141000000
C    -2.225000000     4.926000000    -3.820000000
C    -3.237000000     4.904000000    -4.783000000
H    -3.030000000     4.602000000    -5.806000000
C    -4.553000000     5.267000000    -4.450000000
H    -5.372000000     5.119000000    -5.149000000
C    -4.872000000     5.615000000    -3.107000000
H    -5.909000000     5.681000000    -2.786000000
C    -3.804000000     5.637000000    -2.139000000
C    -2.506000000     5.293000000    -2.483000000
H    -1.636000000     5.191000000    -1.839000000
C     1.510000000     1.210000000    -1.767000000
H     2.291000000     1.147000000    -2.520000000
C     0.813000000     0.035000000    -1.350000000
H     0.946000000    -0.896000000    -1.894000000
C    -0.106000000     0.002000000    -0.305000000
C    -0.802000000    -1.296000000     0.008000000
H    -1.819000000    -1.165000000     0.382000000
H    -0.933000000    -2.009000000    -0.809000000
H    -0.186000000    -1.878000000     0.697000000
C    -0.439000000     1.239000000     0.276000000
H    -1.206000000     1.184000000     1.044000000
C     0.221000000     2.394000000    -0.139000000
H    -0.052000000     3.335000000     0.332000000
C     1.171000000     2.416000000    -1.124000000
C     1.850000000     3.712000000    -1.410000000
O     1.470000000     4.860000000    -1.054000000
O     2.797000000     3.613000000    -2.163000000
O     6.930000000     2.556000000    -5.309000000
H     6.867000000     3.157000000    -4.567000000
H     7.476000000     1.838000000    -4.990000000
O     5.198000000     9.044000000    -2.156000000
H     4.412000000     9.000000000    -1.611000000
H     5.816000000     8.448000000    -1.733000000
O     7.308000000     7.431000000    -2.526000000
H     6.894000000     6.905000000    -1.842000000
H     7.209000000     6.910000000    -3.322000000
O     1.070000000     6.395000000    -4.213000000
H     0.368000000     5.778000000    -4.009000000
H     1.624000000     6.394000000    -3.432000000
O     2.702000000     9.445000000    -4.037000000
H     3.654000000     9.500000000    -4.124000000
H     2.564000000     8.918000000    -3.249000000
O    -0.145000000     6.934000000    -0.446000000
H     0.248000000     6.063000000    -0.499000000
H     0.340000000     7.373000000     0.253000000
O     5.043000000     3.536000000    -7.313000000
H     4.372000000     3.706000000    -6.652000000
H     5.709000000     3.026000000    -6.853000000
O     2.583000000     5.649000000     4.157000000
H     2.753000000     6.539000000     3.848000000
H     2.729000000     5.096000000     3.389000000
O    -2.509000000     8.172000000    -0.823000000
H    -1.641000000     7.777000000    -0.742000000
H    -2.962000000     7.625000000    -1.465000000
O    -0.675000000     8.570000000    -4.296000000
H    -0.034000000     8.002000000    -3.870000000
H    -0.320000000     9.453000000    -4.192000000
O     5.703000000     3.706000000    -2.177000000
H     4.892000000     3.262000000    -2.425000000
H     6.017000000     4.104000000    -2.988000000
O     1.851000000     8.131000000     0.916000000
H     2.025000000     8.868000000     1.502000000
H     2.231000000     8.396000000     0.079000000
O     4.131000000     7.635000000     2.786000000
H     3.683000000     8.477000000     2.873000000
H     3.620000000     7.159000000     2.131000000
O     6.139000000     5.956000000    -0.825000000
H     5.899000000     5.160000000    -1.301000000
H     6.423000000     5.645000000     0.034000000
O     3.655000000     4.528000000    -4.475000000
H     3.305000000     5.347000000    -4.826000000
H     3.224000000     4.428000000    -3.627000000
O     4.680000000     2.955000000     0.393000000
H     4.382000000     2.065000000     0.203000000
H     4.926000000     3.312000000    -0.461000000
O     3.467000000     6.619000000    -2.023000000
H     2.773000000     5.980000000    -1.863000000
H     4.277000000     6.148000000    -1.826000000
O     2.534000000     4.802000000     1.341000000
H     3.312000000     4.346000000     1.021000000
H     2.086000000     5.097000000     0.549000000
O     6.257000000     5.119000000    -4.420000000
H     6.508000000     5.698000000    -5.139000000
H     5.336000000     4.916000000    -4.586000000
