218
-1480.02589
C     2.409000000    -0.643000000     4.464000000
H     2.684000000    -1.639000000     4.126000000
C     1.096000000    -0.261000000     4.584000000
C     0.680000000     1.049000000     4.848000000
H    -0.379000000     1.288000000     4.894000000
C    -0.021000000    -1.216000000     4.226000000
O     0.457000000    -2.608000000     4.278000000
H    -0.199000000    -1.079000000     3.149000000
O    -1.292000000    -1.064000000     4.953000000
C    -2.435000000    -1.056000000     4.144000000
C    -3.002000000     0.190000000     3.823000000
H    -2.699000000     1.061000000     4.398000000
C    -4.004000000     0.321000000     2.857000000
O    -4.318000000     1.582000000     2.357000000
C    -4.488000000    -0.841000000     2.170000000
C    -5.485000000    -0.749000000     1.076000000
H    -6.136000000    -1.622000000     0.986000000
C    -4.844000000    -0.532000000    -0.299000000
C    -4.524000000    -1.649000000    -1.126000000
H    -4.773000000    -2.649000000    -0.782000000
H    -6.213000000     0.050000000     1.235000000
C    -3.904000000    -2.116000000     2.535000000
H    -4.141000000    -2.951000000     1.879000000
C    -2.898000000    -2.230000000     3.491000000
C    -2.156000000    -3.574000000     3.669000000
H    -2.825000000    -4.396000000     3.408000000
H    -1.858000000    -3.693000000     4.713000000
C    -0.997000000    -3.744000000     2.747000000
C    -1.130000000    -4.494000000     1.640000000
H    -2.113000000    -4.893000000     1.407000000
C     0.320000000    -3.301000000     3.126000000
C     1.434000000    -3.523000000     2.246000000
H     2.444000000    -3.189000000     2.467000000
C     1.220000000    -4.277000000     1.085000000
O     2.245000000    -4.322000000     0.183000000
C     2.398000000    -3.429000000    -0.936000000
C     3.805000000    -2.921000000    -1.153000000
C     4.265000000    -2.414000000    -2.404000000
H     3.527000000    -2.268000000    -3.189000000
C     4.705000000    -2.972000000    -0.105000000
H     4.499000000    -3.404000000     0.871000000
O     1.874000000    -4.082000000    -2.144000000
H     1.785000000    -2.524000000    -0.812000000
C    -0.098000000    -4.814000000     0.774000000
C    -0.375000000    -5.544000000    -0.541000000
H    -1.281000000    -6.144000000    -0.435000000
H     0.484000000    -6.186000000    -0.745000000
C    -0.599000000    -4.519000000    -1.677000000
C    -1.878000000    -4.207000000    -1.987000000
H    -2.672000000    -4.539000000    -1.322000000
C     0.488000000    -3.959000000    -2.426000000
C     0.202000000    -3.139000000    -3.509000000
H     1.067000000    -2.682000000    -3.983000000
C    -1.068000000    -2.698000000    -3.710000000
O    -1.238000000    -1.634000000    -4.525000000
C    -1.442000000    -0.355000000    -3.889000000
C    -0.606000000     0.769000000    -4.546000000
C     0.762000000     0.565000000    -4.768000000
H     1.257000000    -0.381000000    -4.564000000
C    -1.231000000     1.981000000    -4.861000000
H    -2.304000000     2.149000000    -4.821000000
O    -2.888000000    -0.161000000    -3.922000000
H    -1.033000000    -0.531000000    -2.882000000
C    -2.164000000    -3.189000000    -2.924000000
C    -3.578000000    -2.830000000    -3.194000000
H    -4.243000000    -3.665000000    -2.965000000
H    -3.700000000    -2.603000000    -4.255000000
C    -3.911000000    -1.545000000    -2.363000000
C    -3.502000000    -0.262000000    -2.697000000
C    -3.811000000     0.872000000    -1.949000000
H    -3.349000000     1.837000000    -2.143000000
C    -4.581000000     0.753000000    -0.779000000
O    -4.717000000     1.853000000    -0.001000000
C    -3.776000000     2.004000000     1.120000000
H    -2.939000000     1.327000000     0.897000000
C    -3.205000000     3.406000000     1.155000000
C    -3.021000000     4.137000000     2.370000000
H    -3.188000000     3.655000000     3.330000000
C    -2.969000000     4.114000000    -0.077000000
H    -3.080000000     3.603000000    -1.030000000
C    -2.364000000     5.376000000    -0.107000000
O    -2.171000000     6.106000000    -1.263000000
C    -2.054000000     6.042000000     1.105000000
H    -1.480000000     6.964000000     1.070000000
C    -2.445000000     5.448000000     2.335000000
O    -2.054000000     6.088000000     3.539000000
C    -1.598000000     5.345000000     4.556000000
C    -0.406000000     4.680000000     4.377000000
H     0.206000000     4.875000000     3.500000000
C    -2.413000000     5.228000000     5.700000000
H    -3.346000000     5.779000000     5.775000000
C    -1.893000000     4.423000000     6.661000000
H    -2.525000000     4.348000000     7.542000000
C    -0.589000000     3.787000000     6.600000000
H    -0.188000000     3.233000000     7.445000000
C     0.142000000     3.878000000     5.427000000
O     1.356000000     3.368000000     5.200000000
C     1.685000000     2.012000000     5.108000000
C     3.037000000     1.619000000     5.144000000
H     3.759000000     2.420000000     5.282000000
C     3.398000000     0.346000000     4.811000000
O     4.718000000     0.161000000     4.559000000
C     5.287000000    -0.950000000     4.003000000
C     5.659000000    -1.054000000     2.681000000
H     5.587000000    -0.265000000     1.936000000
C     5.435000000    -2.048000000     4.827000000
H     5.114000000    -1.920000000     5.858000000
C     6.111000000    -3.193000000     4.321000000
H     6.258000000    -4.016000000     5.017000000
C     6.542000000    -3.277000000     3.022000000
H     7.008000000    -4.196000000     2.675000000
C     6.302000000    -2.186000000     2.194000000
O     6.789000000    -2.228000000     0.885000000
C     5.915000000    -2.296000000    -0.200000000
C     6.360000000    -1.759000000    -1.400000000
H     7.332000000    -1.280000000    -1.476000000
C     5.534000000    -1.826000000    -2.530000000
O     5.995000000    -1.319000000    -3.702000000
C     5.204000000    -1.067000000    -4.815000000
C     4.351000000     0.012000000    -4.702000000
H     4.164000000     0.594000000    -3.803000000
C     5.356000000    -1.828000000    -6.002000000
H     6.039000000    -2.672000000    -5.944000000
C     4.717000000    -1.390000000    -7.145000000
H     4.791000000    -2.048000000    -8.007000000
C     3.833000000    -0.262000000    -7.059000000
H     3.333000000     0.146000000    -7.934000000
C     3.629000000     0.374000000    -5.779000000
O     2.856000000     1.534000000    -5.761000000
C     1.538000000     1.588000000    -5.400000000
C     0.944000000     2.863000000    -5.640000000
H     1.635000000     3.647000000    -5.940000000
C    -0.425000000     3.041000000    -5.354000000
O    -1.103000000     4.238000000    -5.604000000
C    -1.958000000     4.730000000    -4.705000000
C    -3.277000000     4.900000000    -5.111000000
H    -3.668000000     4.800000000    -6.120000000
C    -4.273000000     5.451000000    -4.233000000
H    -5.313000000     5.492000000    -4.548000000
C    -3.886000000     5.652000000    -2.896000000
H    -4.611000000     5.971000000    -2.152000000
C    -2.550000000     5.666000000    -2.515000000
C    -1.581000000     5.130000000    -3.404000000
H    -0.518000000     5.053000000    -3.188000000
C     0.992000000     2.121000000    -1.333000000
H     1.718000000     2.182000000    -2.140000000
C     0.446000000     0.830000000    -1.109000000
H     0.724000000     0.000000000    -1.754000000
C    -0.311000000     0.610000000    -0.002000000
C    -1.076000000    -0.702000000     0.253000000
H    -0.359000000    -1.406000000     0.680000000
H    -2.022000000    -0.775000000     0.793000000
H    -1.362000000    -1.050000000    -0.742000000
C    -0.551000000     1.683000000     0.910000000
H    -1.070000000     1.399000000     1.822000000
C    -0.074000000     2.968000000     0.659000000
H    -0.323000000     3.825000000     1.279000000
C     0.660000000     3.198000000    -0.531000000
C     1.338000000     4.586000000    -0.766000000
O     1.470000000     5.311000000     0.202000000
O     1.890000000     4.803000000    -1.852000000
O     6.108000000     2.522000000    -5.102000000
H     6.477000000     2.043000000    -4.361000000
H     5.375000000     3.012000000    -4.729000000
O     1.855000000     6.918000000     4.474000000
H     2.744000000     7.257000000     4.581000000
H     1.777000000     6.237000000     5.143000000
O     2.593000000    10.089000000    -1.333000000
H     2.531000000     9.137000000    -1.259000000
H     2.159000000    10.419000000    -0.546000000
O     1.034000000     7.477000000     1.565000000
H     1.412000000     7.495000000     2.444000000
H     1.327000000     6.644000000     1.196000000
O     6.218000000     2.592000000     3.162000000
H     5.488000000     2.351000000     2.591000000
H     5.968000000     2.258000000     4.024000000
O     4.272000000     6.479000000    -6.147000000
H     4.259000000     7.372000000    -6.491000000
H     3.490000000     6.422000000    -5.598000000
O     1.956000000     6.175000000    -4.340000000
H     1.362000000     5.707000000    -4.926000000
H     1.882000000     5.714000000    -3.505000000
O     0.825000000     8.617000000    -3.649000000
H     1.161000000     8.771000000    -2.766000000
H     1.215000000     7.783000000    -3.911000000
O     3.735000000     5.168000000     1.689000000
H     2.884000000     5.367000000     1.297000000
H     3.590000000     4.360000000     2.181000000
O     0.041000000     9.857000000     0.287000000
H     0.491000000     9.130000000     0.717000000
H    -0.495000000    10.249000000     0.977000000
O     3.957000000     3.758000000    -3.238000000
H     3.118000000     3.902000000    -2.801000000
H     4.461000000     3.229000000    -2.621000000
O     3.769000000     8.564000000     1.759000000
H     2.952000000     8.527000000     1.262000000
H     4.434000000     8.238000000     1.153000000
O     5.613000000     7.010000000     0.742000000
H     4.873000000     6.489000000     1.052000000
H     6.067000000     6.437000000     0.123000000
O     6.057000000     5.441000000    -4.328000000
H     5.844000000     5.872000000    -5.156000000
H     5.218000000     5.113000000    -4.006000000
O     5.378000000     2.837000000    -0.990000000
H     5.926000000     3.031000000    -0.230000000
H     5.826000000     2.115000000    -1.430000000
O     2.029000000     7.616000000    -1.063000000
H     1.252000000     7.344000000    -0.576000000
H     2.374000000     6.805000000    -1.437000000
O    -1.950000000     8.564000000    -3.435000000
H    -2.324000000     7.979000000    -2.776000000
H    -1.004000000     8.445000000    -3.352000000
O     3.708000000     2.337000000     1.463000000
H     3.560000000     2.877000000     0.687000000
H     3.058000000     1.637000000     1.396000000
O     6.402000000     5.488000000    -1.460000000
H     6.089000000     4.585000000    -1.401000000
H     6.494000000     5.649000000    -2.399000000
