218
-1459.03946
C     1.548000000    -2.410000000     4.003000000
H     2.125000000    -3.016000000     3.308000000
C     0.132000000    -2.301000000     4.026000000
C    -0.381000000    -1.307000000     4.874000000
H    -1.455000000    -1.176000000     4.768000000
C    -0.783000000    -2.968000000     2.964000000
O    -0.138000000    -4.153000000     2.423000000
H    -0.951000000    -2.214000000     2.181000000
O    -2.131000000    -3.289000000     3.350000000
C    -3.124000000    -3.001000000     2.364000000
C    -3.824000000    -1.790000000     2.552000000
H    -3.792000000    -1.261000000     3.501000000
C    -4.563000000    -1.318000000     1.473000000
O    -4.968000000    -0.040000000     1.464000000
C    -4.723000000    -2.034000000     0.317000000
C    -5.481000000    -1.408000000    -0.923000000
H    -5.933000000    -2.167000000    -1.564000000
C    -4.674000000    -0.460000000    -1.826000000
C    -4.063000000    -0.968000000    -3.001000000
H    -4.262000000    -1.965000000    -3.383000000
H    -6.364000000    -0.907000000    -0.521000000
C    -4.096000000    -3.287000000     0.172000000
H    -4.219000000    -3.797000000    -0.780000000
C    -3.238000000    -3.780000000     1.189000000
C    -2.395000000    -4.991000000     0.890000000
H    -3.023000000    -5.556000000     0.198000000
H    -2.223000000    -5.444000000     1.868000000
C    -1.061000000    -4.612000000     0.270000000
C    -0.848000000    -4.719000000    -1.070000000
H    -1.683000000    -4.848000000    -1.753000000
C     0.052000000    -4.258000000     1.084000000
C     1.302000000    -3.979000000     0.526000000
H     2.154000000    -3.885000000     1.195000000
C     1.444000000    -4.078000000    -0.829000000
O     2.648000000    -3.775000000    -1.389000000
C     2.830000000    -2.409000000    -1.903000000
C     4.249000000    -1.826000000    -1.459000000
C     4.802000000    -0.705000000    -2.080000000
H     4.336000000    -0.281000000    -2.966000000
C     4.950000000    -2.377000000    -0.369000000
H     4.510000000    -3.227000000     0.147000000
O     2.630000000    -2.455000000    -3.381000000
H     2.025000000    -1.789000000    -1.482000000
C     0.401000000    -4.353000000    -1.653000000
C     0.593000000    -4.466000000    -3.207000000
H    -0.056000000    -5.195000000    -3.696000000
H     1.591000000    -4.860000000    -3.411000000
C     0.284000000    -3.112000000    -3.803000000
C    -0.982000000    -2.663000000    -4.320000000
H    -1.827000000    -3.344000000    -4.267000000
C     1.362000000    -2.222000000    -3.851000000
C     1.183000000    -0.944000000    -4.211000000
H     2.009000000    -0.254000000    -4.060000000
C    -0.059000000    -0.499000000    -4.660000000
O    -0.081000000     0.857000000    -4.949000000
C    -0.672000000     1.642000000    -3.898000000
C     0.143000000     2.908000000    -3.782000000
C     1.534000000     2.881000000    -3.908000000
H     2.121000000     2.041000000    -4.271000000
C    -0.479000000     4.114000000    -3.394000000
H    -1.551000000     4.217000000    -3.249000000
O    -2.105000000     1.917000000    -4.083000000
H    -0.617000000     1.107000000    -2.939000000
C    -1.179000000    -1.301000000    -4.734000000
C    -2.583000000    -0.764000000    -5.011000000
H    -3.243000000    -1.592000000    -5.277000000
H    -2.578000000    -0.055000000    -5.842000000
C    -3.231000000    -0.152000000    -3.779000000
C    -3.093000000     1.191000000    -3.494000000
C    -3.776000000     1.753000000    -2.344000000
H    -3.571000000     2.757000000    -1.982000000
C    -4.630000000     0.929000000    -1.565000000
O    -5.011000000     1.428000000    -0.324000000
C    -4.196000000     0.927000000     0.762000000
H    -3.218000000     0.597000000     0.381000000
C    -3.772000000     2.150000000     1.678000000
C    -4.028000000     2.118000000     3.058000000
H    -4.471000000     1.220000000     3.481000000
C    -3.103000000     3.218000000     1.115000000
H    -2.987000000     3.247000000     0.034000000
C    -2.645000000     4.276000000     1.952000000
O    -2.041000000     5.387000000     1.443000000
C    -2.836000000     4.186000000     3.317000000
H    -2.644000000     5.085000000     3.897000000
C    -3.570000000     3.160000000     3.861000000
O    -3.694000000     3.100000000     5.234000000
C    -3.147000000     2.208000000     6.058000000
C    -1.886000000     1.648000000     5.845000000
H    -1.255000000     2.099000000     5.083000000
C    -3.977000000     1.680000000     7.073000000
H    -4.948000000     2.046000000     7.395000000
C    -3.492000000     0.677000000     7.940000000
H    -4.060000000     0.268000000     8.772000000
C    -2.198000000     0.220000000     7.769000000
H    -1.718000000    -0.495000000     8.433000000
C    -1.454000000     0.699000000     6.730000000
O    -0.098000000     0.413000000     6.561000000
C     0.438000000    -0.564000000     5.777000000
C     1.869000000    -0.738000000     5.699000000
H     2.519000000    -0.115000000     6.307000000
C     2.382000000    -1.783000000     4.973000000
O     3.735000000    -1.962000000     4.975000000
C     4.459000000    -2.664000000     4.123000000
C     4.987000000    -2.168000000     2.962000000
H     4.885000000    -1.106000000     2.754000000
C     4.679000000    -3.997000000     4.451000000
H     4.189000000    -4.465000000     5.302000000
C     5.480000000    -4.810000000     3.610000000
H     5.619000000    -5.850000000     3.892000000
C     6.251000000    -4.233000000     2.580000000
H     7.016000000    -4.781000000     2.035000000
C     5.995000000    -2.900000000     2.245000000
O     6.697000000    -2.354000000     1.144000000
C     6.179000000    -1.884000000    -0.015000000
C     6.790000000    -0.842000000    -0.665000000
H     7.771000000    -0.455000000    -0.402000000
C     6.089000000    -0.206000000    -1.661000000
O     6.846000000     0.761000000    -2.289000000
C     6.174000000     1.498000000    -3.262000000
C     5.336000000     2.573000000    -3.038000000
H     5.184000000     2.921000000    -2.019000000
C     6.417000000     1.076000000    -4.612000000
H     7.108000000     0.267000000    -4.837000000
C     5.732000000     1.687000000    -5.671000000
H     5.811000000     1.308000000    -6.686000000
C     4.878000000     2.695000000    -5.379000000
H     4.374000000     3.226000000    -6.182000000
C     4.584000000     3.138000000    -4.062000000
O     3.624000000     4.138000000    -3.820000000
C     2.324000000     4.061000000    -3.616000000
C     1.622000000     5.186000000    -3.259000000
H     2.167000000     6.100000000    -3.036000000
C     0.264000000     5.276000000    -3.174000000
O    -0.342000000     6.461000000    -2.832000000
C    -1.347000000     6.555000000    -1.942000000
C    -2.466000000     7.339000000    -2.232000000
H    -2.691000000     7.841000000    -3.169000000
C    -3.457000000     7.434000000    -1.293000000
H    -4.381000000     7.950000000    -1.539000000
C    -3.400000000     6.740000000    -0.091000000
H    -4.230000000     6.820000000     0.606000000
C    -2.262000000     5.934000000     0.199000000
C    -1.250000000     5.875000000    -0.714000000
H    -0.433000000     5.192000000    -0.496000000
C     0.743000000     2.652000000     1.444000000
H     0.348000000     3.665000000     1.453000000
C     0.299000000     1.695000000     0.548000000
H    -0.506000000     1.901000000    -0.153000000
C     0.709000000     0.381000000     0.621000000
C     0.094000000    -0.721000000    -0.223000000
H     0.207000000    -1.694000000     0.260000000
H    -0.993000000    -0.641000000    -0.164000000
H     0.421000000    -0.793000000    -1.263000000
C     1.599000000     0.067000000     1.636000000
H     1.961000000    -0.953000000     1.738000000
C     2.195000000     1.020000000     2.408000000
H     2.927000000     0.769000000     3.171000000
C     1.779000000     2.335000000     2.372000000
C     2.318000000     3.484000000     3.201000000
O     3.008000000     3.165000000     4.165000000
O     2.112000000     4.635000000     2.925000000
O     3.734000000     1.900000000    -0.313000000
H     3.424000000     2.760000000    -0.595000000
H     2.946000000     1.449000000    -0.009000000
O     2.584000000     8.488000000     4.066000000
H     3.258000000     7.900000000     3.726000000
H     1.885000000     7.906000000     4.362000000
O     8.072000000     2.605000000     4.220000000
H     8.054000000     2.919000000     5.125000000
H     7.309000000     2.031000000     4.151000000
O     3.187000000     4.637000000    -0.319000000
H     2.379000000     5.079000000    -0.057000000
H     3.753000000     5.341000000    -0.635000000
O     4.907000000     4.905000000     5.586000000
H     5.515000000     5.318000000     4.973000000
H     4.413000000     4.283000000     5.051000000
O     7.278000000     6.779000000     4.260000000
H     7.615000000     7.523000000     4.760000000
H     6.915000000     7.169000000     3.465000000
O    -1.055000000     4.684000000     7.581000000
H    -0.321000000     4.283000000     7.114000000
H    -1.216000000     4.098000000     8.321000000
O     0.828000000     6.347000000     4.313000000
H     1.062000000     5.973000000     5.162000000
H     1.238000000     5.766000000     3.673000000
O     1.330000000     6.487000000     1.255000000
H     0.588000000     6.551000000     1.857000000
H     1.811000000     5.714000000     1.550000000
O     4.274000000     6.713000000     3.070000000
H     4.946000000     6.658000000     2.391000000
H     3.843000000     5.858000000     3.051000000
O     2.882000000     4.956000000     7.418000000
H     3.592000000     4.861000000     6.783000000
H     2.274000000     4.249000000     7.205000000
O     0.855000000     9.444000000     1.703000000
H     1.000000000     8.578000000     1.322000000
H     1.252000000     9.393000000     2.572000000
O     4.779000000     2.817000000     7.381000000
H     4.656000000     2.166000000     6.690000000
H     4.988000000     3.626000000     6.913000000
O     1.147000000     3.123000000     6.316000000
H     1.699000000     3.036000000     5.538000000
H     0.942000000     2.222000000     6.565000000
O     5.987000000     1.635000000     1.137000000
H     5.139000000     1.760000000     0.710000000
H     6.600000000     2.141000000     0.604000000
O     6.215000000     7.162000000     1.155000000
H     5.763000000     7.804000000     0.607000000
H     6.713000000     6.627000000     0.537000000
O     5.255000000     1.728000000     4.038000000
H     5.501000000     1.724000000     3.113000000
H     4.399000000     2.156000000     4.057000000
O     5.850000000    -0.298000000     5.620000000
H     5.753000000     0.491000000     5.086000000
H     4.995000000    -0.725000000     5.572000000
O     7.539000000     0.027000000     2.714000000
H     8.345000000     0.540000000     2.775000000
H     7.012000000     0.485000000     2.059000000
