218
-1446.32409
C     0.935000000    -3.728000000     4.246000000
H     1.206000000    -4.646000000     3.731000000
C    -0.220000000    -3.063000000     3.781000000
C    -0.637000000    -2.007000000     4.545000000
H    -1.511000000    -1.423000000     4.268000000
C    -0.957000000    -3.430000000     2.534000000
O    -0.290000000    -4.560000000     1.933000000
H    -0.704000000    -2.646000000     1.805000000
O    -2.391000000    -3.625000000     2.590000000
C    -3.137000000    -3.165000000     1.519000000
C    -3.797000000    -1.931000000     1.655000000
H    -3.652000000    -1.420000000     2.603000000
C    -4.472000000    -1.374000000     0.566000000
O    -5.106000000    -0.097000000     0.794000000
C    -4.385000000    -1.999000000    -0.669000000
C    -5.071000000    -1.386000000    -1.869000000
H    -5.347000000    -2.230000000    -2.506000000
C    -4.264000000    -0.302000000    -2.647000000
C    -3.412000000    -0.631000000    -3.652000000
H    -3.345000000    -1.612000000    -4.115000000
H    -6.012000000    -0.929000000    -1.557000000
C    -3.679000000    -3.208000000    -0.749000000
H    -3.505000000    -3.696000000    -1.705000000
C    -3.028000000    -3.807000000     0.294000000
C    -2.282000000    -5.150000000     0.091000000
H    -2.734000000    -5.817000000    -0.646000000
H    -2.270000000    -5.801000000     0.968000000
C    -0.810000000    -4.881000000    -0.331000000
C    -0.470000000    -4.648000000    -1.669000000
H    -1.189000000    -4.814000000    -2.466000000
C     0.148000000    -4.617000000     0.632000000
C     1.441000000    -4.300000000     0.407000000
H     2.079000000    -4.090000000     1.262000000
C     1.770000000    -4.208000000    -0.962000000
O     3.077000000    -3.752000000    -1.243000000
C     3.050000000    -2.330000000    -1.313000000
C     4.222000000    -1.805000000    -0.491000000
C     4.815000000    -0.594000000    -1.009000000
H     4.603000000    -0.115000000    -1.961000000
C     4.669000000    -2.406000000     0.661000000
H     4.359000000    -3.432000000     0.844000000
O     3.159000000    -2.032000000    -2.682000000
H     2.083000000    -1.933000000    -0.972000000
C     0.816000000    -4.369000000    -2.022000000
C     1.138000000    -4.070000000    -3.482000000
H     0.666000000    -4.806000000    -4.136000000
H     2.174000000    -4.387000000    -3.620000000
C     1.015000000    -2.580000000    -3.808000000
C    -0.174000000    -2.092000000    -4.328000000
H    -0.929000000    -2.826000000    -4.597000000
C     2.034000000    -1.718000000    -3.370000000
C     1.852000000    -0.392000000    -3.512000000
H     2.656000000     0.271000000    -3.203000000
C     0.760000000     0.088000000    -4.197000000
O     0.627000000     1.447000000    -4.336000000
C    -0.107000000     2.173000000    -3.372000000
C     0.617000000     3.407000000    -2.876000000
C     1.956000000     3.512000000    -2.952000000
H     2.586000000     2.684000000    -3.267000000
C    -0.140000000     4.361000000    -2.279000000
H    -1.222000000     4.390000000    -2.378000000
O    -1.447000000     2.410000000    -3.961000000
H    -0.260000000     1.509000000    -2.508000000
C    -0.312000000    -0.738000000    -4.553000000
C    -1.496000000    -0.136000000    -5.145000000
H    -1.951000000    -0.783000000    -5.897000000
H    -1.130000000     0.761000000    -5.650000000
C    -2.485000000     0.293000000    -4.115000000
C    -2.487000000     1.631000000    -3.648000000
C    -3.438000000     2.003000000    -2.682000000
H    -3.401000000     3.047000000    -2.379000000
C    -4.328000000     1.067000000    -2.201000000
O    -5.009000000     1.353000000    -1.026000000
C    -4.376000000     1.085000000     0.223000000
H    -3.323000000     0.874000000    -0.016000000
C    -4.269000000     2.276000000     1.221000000
C    -3.617000000     2.202000000     2.440000000
H    -3.317000000     1.218000000     2.791000000
C    -4.621000000     3.541000000     0.755000000
H    -5.071000000     3.625000000    -0.231000000
C    -4.022000000     4.701000000     1.315000000
O    -4.251000000     5.932000000     0.791000000
C    -3.417000000     4.544000000     2.574000000
H    -3.181000000     5.484000000     3.067000000
C    -3.310000000     3.327000000     3.217000000
O    -2.846000000     3.285000000     4.534000000
C    -2.837000000     2.051000000     5.231000000
C    -1.648000000     1.395000000     5.501000000
H    -0.735000000     1.880000000     5.165000000
C    -3.981000000     1.405000000     5.532000000
H    -4.926000000     1.860000000     5.246000000
C    -3.973000000     0.228000000     6.307000000
H    -4.855000000    -0.373000000     6.513000000
C    -2.719000000    -0.345000000     6.651000000
H    -2.659000000    -1.245000000     7.258000000
C    -1.575000000     0.175000000     6.171000000
O    -0.331000000    -0.397000000     6.352000000
C     0.122000000    -1.473000000     5.617000000
C     1.328000000    -2.068000000     5.896000000
H     2.013000000    -1.653000000     6.630000000
C     1.737000000    -3.252000000     5.268000000
O     2.888000000    -3.814000000     5.675000000
C     3.864000000    -4.098000000     4.728000000
C     4.568000000    -3.209000000     3.978000000
H     4.382000000    -2.149000000     4.131000000
C     4.148000000    -5.462000000     4.464000000
H     3.550000000    -6.174000000     5.026000000
C     5.047000000    -5.845000000     3.407000000
H     5.072000000    -6.902000000     3.156000000
C     5.753000000    -4.866000000     2.768000000
H     6.512000000    -5.178000000     2.055000000
C     5.531000000    -3.550000000     3.051000000
O     6.204000000    -2.528000000     2.475000000
C     5.764000000    -1.850000000     1.375000000
C     6.303000000    -0.614000000     0.920000000
H     7.139000000    -0.231000000     1.501000000
C     5.836000000    -0.005000000    -0.209000000
O     6.379000000     1.257000000    -0.587000000
C     6.022000000     2.007000000    -1.764000000
C     5.272000000     3.192000000    -1.593000000
H     4.893000000     3.531000000    -0.633000000
C     6.300000000     1.546000000    -3.025000000
H     6.927000000     0.675000000    -3.194000000
C     5.795000000     2.189000000    -4.173000000
H     6.047000000     1.842000000    -5.171000000
C     5.008000000     3.352000000    -3.958000000
H     4.481000000     3.837000000    -4.775000000
C     4.797000000     3.861000000    -2.697000000
O     3.862000000     4.898000000    -2.546000000
C     2.537000000     4.734000000    -2.534000000
C     1.820000000     5.848000000    -2.126000000
H     2.254000000     6.818000000    -1.897000000
C     0.413000000     5.622000000    -2.034000000
O    -0.297000000     6.767000000    -1.731000000
C    -1.651000000     6.786000000    -1.681000000
C    -2.411000000     7.444000000    -2.664000000
H    -2.009000000     7.961000000    -3.531000000
C    -3.775000000     7.501000000    -2.548000000
H    -4.369000000     8.013000000    -3.301000000
C    -4.445000000     6.991000000    -1.445000000
H    -5.526000000     7.062000000    -1.350000000
C    -3.695000000     6.377000000    -0.369000000
C    -2.316000000     6.355000000    -0.538000000
H    -1.783000000     5.900000000     0.293000000
C    -0.213000000     2.735000000     1.154000000
H    -0.546000000     3.768000000     1.088000000
C    -0.741000000     1.769000000     0.181000000
H    -1.462000000     2.193000000    -0.513000000
C    -0.367000000     0.432000000     0.162000000
C    -1.098000000    -0.531000000    -0.720000000
H    -1.522000000    -0.011000000    -1.582000000
H    -0.458000000    -1.342000000    -1.072000000
H    -1.929000000    -1.039000000    -0.226000000
C     0.573000000     0.050000000     1.095000000
H     0.922000000    -0.980000000     1.099000000
C     1.124000000     0.960000000     2.074000000
H     1.794000000     0.591000000     2.846000000
C     0.714000000     2.304000000     2.066000000
C     1.204000000     3.208000000     3.144000000
O     2.127000000     2.800000000     3.809000000
O     0.987000000     4.381000000     3.174000000
O     3.084000000     4.689000000     1.252000000
H     2.493000000     4.838000000     0.514000000
H     2.512000000     4.391000000     1.960000000
O     5.950000000     5.646000000     0.654000000
H     5.270000000     5.165000000     1.126000000
H     5.587000000     6.524000000     0.538000000
O     4.846000000     7.865000000     3.628000000
H     5.023000000     6.928000000     3.706000000
H     5.702000000     8.257000000     3.453000000
O    -0.573000000     7.352000000     2.165000000
H    -0.448000000     8.269000000     2.409000000
H    -0.743000000     6.905000000     2.994000000
O     0.843000000     9.159000000     3.908000000
H     1.486000000     9.829000000     4.139000000
H     1.328000000     8.335000000     3.955000000
O    -3.051000000     5.139000000     6.520000000
H    -2.622000000     4.495000000     5.957000000
H    -3.987000000     4.988000000     6.388000000
O     1.412000000     4.047000000     6.064000000
H     2.143000000     4.662000000     6.119000000
H     1.555000000     3.578000000     5.242000000
O     4.931000000     3.127000000     5.892000000
H     5.754000000     2.773000000     6.231000000
H     4.311000000     2.402000000     5.965000000
O    -0.838000000     5.889000000     4.391000000
H    -0.575000000     5.764000000     5.303000000
H    -0.280000000     5.287000000     3.897000000
O     2.889000000     6.077000000     6.799000000
H     2.970000000     6.907000000     7.269000000
H     2.885000000     6.324000000     5.875000000
O     2.205000000     6.773000000     3.686000000
H     3.146000000     6.652000000     3.556000000
H     1.838000000     5.892000000     3.615000000
O     1.929000000     7.959000000     0.690000000
H     1.636000000     7.643000000     1.545000000
H     1.126000000     8.034000000     0.175000000
O     3.406000000     2.704000000     8.223000000
H     3.722000000     3.397000000     7.644000000
H     3.351000000     1.930000000     7.662000000
O     4.468000000     4.972000000     4.036000000
H     4.687000000     4.273000000     4.652000000
H     4.002000000     4.529000000     3.327000000
O     0.030000000     3.021000000     8.355000000
H     0.628000000     2.440000000     8.825000000
H     0.522000000     3.295000000     7.581000000
O     4.208000000     1.969000000     2.034000000
H     3.767000000     2.515000000     1.383000000
H     3.742000000     2.148000000     2.851000000
O    -1.787000000     8.345000000     4.992000000
H    -1.400000000     7.557000000     4.610000000
H    -1.327000000     9.069000000     4.566000000
O     3.398000000     0.975000000     5.682000000
H     2.943000000     1.625000000     5.146000000
H     3.452000000     0.199000000     5.124000000
O     6.996000000     1.392000000     3.362000000
H     6.321000000     1.682000000     2.748000000
H     6.578000000     0.693000000     3.865000000
