218
-1446.78593
C     2.287000000    -3.822000000     2.953000000
H     2.658000000    -4.722000000     2.469000000
C     0.954000000    -3.391000000     2.785000000
C     0.525000000    -2.364000000     3.560000000
H    -0.531000000    -2.144000000     3.430000000
C     0.064000000    -3.900000000     1.685000000
O     0.565000000    -4.897000000     0.818000000
H    -0.007000000    -2.996000000     1.064000000
O    -1.294000000    -4.206000000     2.067000000
C    -2.309000000    -3.581000000     1.277000000
C    -3.045000000    -2.662000000     1.941000000
H    -2.846000000    -2.446000000     2.988000000
C    -4.050000000    -2.008000000     1.283000000
O    -4.654000000    -0.936000000     1.885000000
C    -4.311000000    -2.335000000    -0.031000000
C    -5.302000000    -1.541000000    -0.891000000
H    -5.627000000    -2.275000000    -1.631000000
C    -4.655000000    -0.271000000    -1.533000000
C    -4.101000000    -0.369000000    -2.778000000
H    -4.157000000    -1.331000000    -3.282000000
H    -6.123000000    -1.276000000    -0.222000000
C    -3.723000000    -3.442000000    -0.607000000
H    -3.934000000    -3.732000000    -1.633000000
C    -2.642000000    -4.018000000     0.031000000
C    -2.000000000    -5.268000000    -0.683000000
H    -2.595000000    -5.623000000    -1.527000000
H    -1.707000000    -6.067000000     0.001000000
C    -0.641000000    -4.808000000    -1.321000000
C    -0.630000000    -4.254000000    -2.581000000
H    -1.568000000    -4.354000000    -3.122000000
C     0.506000000    -4.762000000    -0.554000000
C     1.629000000    -4.110000000    -1.127000000
H     2.460000000    -3.963000000    -0.441000000
C     1.718000000    -3.803000000    -2.477000000
O     2.966000000    -3.326000000    -2.955000000
C     3.086000000    -1.862000000    -2.931000000
C     4.388000000    -1.312000000    -2.443000000
C     4.667000000     0.055000000    -2.619000000
H     3.944000000     0.678000000    -3.140000000
C     5.188000000    -2.122000000    -1.562000000
H     4.964000000    -3.167000000    -1.362000000
O     2.783000000    -1.258000000    -4.257000000
H     2.356000000    -1.497000000    -2.194000000
C     0.537000000    -3.811000000    -3.244000000
C     0.598000000    -3.230000000    -4.684000000
H    -0.070000000    -3.773000000    -5.356000000
H     1.644000000    -3.414000000    -4.939000000
C     0.369000000    -1.759000000    -4.716000000
C    -0.937000000    -1.323000000    -4.793000000
H    -1.806000000    -1.956000000    -4.955000000
C     1.439000000    -0.845000000    -4.559000000
C     1.166000000     0.515000000    -4.413000000
H     1.931000000     1.258000000    -4.204000000
C    -0.188000000     0.890000000    -4.412000000
O    -0.415000000     2.238000000    -4.138000000
C    -1.126000000     2.559000000    -2.921000000
C    -0.489000000     3.783000000    -2.225000000
C     0.930000000     3.964000000    -2.337000000
H     1.493000000     3.126000000    -2.738000000
C    -1.222000000     4.666000000    -1.546000000
H    -2.297000000     4.511000000    -1.504000000
O    -2.510000000     2.836000000    -3.106000000
H    -1.099000000     1.753000000    -2.173000000
C    -1.222000000    -0.019000000    -4.611000000
C    -2.692000000     0.416000000    -4.706000000
H    -3.223000000    -0.247000000    -5.393000000
H    -2.813000000     1.406000000    -5.151000000
C    -3.417000000     0.636000000    -3.412000000
C    -3.398000000     1.861000000    -2.748000000
C    -3.965000000     1.963000000    -1.442000000
H    -3.829000000     2.881000000    -0.877000000
C    -4.593000000     0.909000000    -0.819000000
O    -5.003000000     0.935000000     0.504000000
C    -4.110000000     0.385000000     1.574000000
H    -3.109000000     0.332000000     1.123000000
C    -3.989000000     1.335000000     2.712000000
C    -3.792000000     0.820000000     4.002000000
H    -3.693000000    -0.255000000     4.132000000
C    -3.770000000     2.714000000     2.453000000
H    -3.735000000     3.021000000     1.411000000
C    -3.658000000     3.614000000     3.490000000
O    -3.816000000     4.989000000     3.284000000
C    -3.559000000     3.094000000     4.799000000
H    -3.528000000     3.795000000     5.629000000
C    -3.557000000     1.718000000     5.040000000
O    -3.362000000     1.319000000     6.336000000
C    -2.463000000     0.337000000     6.594000000
C    -1.351000000     0.134000000     5.791000000
H    -1.079000000     0.796000000     4.973000000
C    -2.643000000    -0.432000000     7.704000000
H    -3.591000000    -0.370000000     8.231000000
C    -1.739000000    -1.418000000     8.019000000
H    -1.857000000    -1.891000000     8.990000000
C    -0.598000000    -1.617000000     7.222000000
H     0.206000000    -2.253000000     7.582000000
C    -0.358000000    -0.779000000     6.099000000
O     0.842000000    -0.770000000     5.364000000
C     1.315000000    -1.769000000     4.570000000
C     2.641000000    -2.239000000     4.680000000
H     3.305000000    -1.778000000     5.407000000
C     3.132000000    -3.248000000     3.885000000
O     4.485000000    -3.620000000     3.972000000
C     5.192000000    -3.973000000     2.875000000
C     5.647000000    -2.866000000     2.104000000
H     5.369000000    -1.828000000     2.267000000
C     5.486000000    -5.223000000     2.538000000
H     5.081000000    -5.983000000     3.201000000
C     6.140000000    -5.477000000     1.379000000
H     6.279000000    -6.507000000     1.058000000
C     6.606000000    -4.464000000     0.593000000
H     7.219000000    -4.693000000    -0.275000000
C     6.349000000    -3.152000000     0.972000000
O     6.835000000    -2.164000000     0.186000000
C     6.209000000    -1.511000000    -0.846000000
C     6.517000000    -0.198000000    -1.045000000
H     7.339000000     0.286000000    -0.524000000
C     5.722000000     0.583000000    -1.893000000
O     6.016000000     1.929000000    -1.965000000
C     5.351000000     2.901000000    -2.688000000
C     4.275000000     3.508000000    -2.116000000
H     3.922000000     3.237000000    -1.124000000
C     5.680000000     3.178000000    -4.013000000
H     6.470000000     2.554000000    -4.421000000
C     5.091000000     4.224000000    -4.727000000
H     5.286000000     4.377000000    -5.785000000
C     4.132000000     4.949000000    -4.030000000
H     3.744000000     5.846000000    -4.506000000
C     3.784000000     4.652000000    -2.739000000
O     2.784000000     5.440000000    -2.247000000
C     1.492000000     5.137000000    -1.923000000
C     0.637000000     6.116000000    -1.223000000
H     1.003000000     7.076000000    -0.869000000
C    -0.703000000     5.820000000    -0.950000000
O    -1.579000000     6.859000000    -0.499000000
C    -2.763000000     6.664000000     0.262000000
C    -3.918000000     7.327000000    -0.144000000
H    -3.909000000     7.933000000    -1.047000000
C    -5.065000000     7.171000000     0.668000000
H    -5.996000000     7.695000000     0.471000000
C    -5.010000000     6.354000000     1.805000000
H    -5.937000000     6.152000000     2.336000000
C    -3.888000000     5.677000000     2.108000000
C    -2.698000000     5.877000000     1.391000000
H    -1.802000000     5.325000000     1.661000000
C     0.060000000     2.548000000     2.091000000
H    -0.525000000     3.439000000     2.305000000
C    -0.505000000     1.783000000     1.054000000
H    -1.425000000     2.062000000     0.547000000
C     0.140000000     0.571000000     0.640000000
C    -0.402000000    -0.227000000    -0.453000000
H    -0.408000000    -1.296000000    -0.230000000
H    -1.313000000     0.171000000    -0.905000000
H     0.436000000    -0.072000000    -1.135000000
C     1.385000000     0.244000000     1.204000000
H     1.810000000    -0.692000000     0.852000000
C     1.813000000     0.928000000     2.335000000
H     2.744000000     0.526000000     2.726000000
C     1.217000000     2.125000000     2.751000000
C     1.725000000     2.765000000     4.055000000
O     2.854000000     2.555000000     4.509000000
O     0.955000000     3.529000000     4.663000000
O     6.711000000     4.508000000     0.856000000
H     6.147000000     5.079000000     0.334000000
H     6.175000000     4.271000000     1.614000000
O     3.343000000     6.886000000     1.093000000
H     2.459000000     6.640000000     1.364000000
H     3.798000000     7.083000000     1.912000000
O    -0.610000000     1.766000000     8.337000000
H    -1.223000000     1.374000000     7.714000000
H    -0.419000000     1.064000000     8.959000000
O     1.997000000     3.095000000     7.157000000
H     1.907000000     3.203000000     6.210000000
H     1.144000000     3.347000000     7.510000000
O     4.696000000     4.262000000     6.530000000
H     3.954000000     3.702000000     6.304000000
H     5.167000000     3.775000000     7.206000000
O    -0.724000000     4.652000000     6.549000000
H    -0.108000000     5.307000000     6.878000000
H    -0.196000000     4.093000000     5.979000000
O     5.101000000     7.330000000     3.488000000
H     5.622000000     7.829000000     4.117000000
H     5.473000000     7.558000000     2.636000000
O     2.324000000     5.943000000     5.231000000
H     1.867000000     5.114000000     5.087000000
H     3.184000000     5.688000000     5.565000000
O     0.782000000     7.540000000     2.530000000
H     0.180000000     8.277000000     2.640000000
H     0.382000000     6.829000000     3.031000000
O     3.050000000     0.251000000     7.523000000
H     2.435000000     0.984000000     7.530000000
H     3.645000000     0.443000000     6.799000000
O     4.862000000     6.712000000     7.418000000
H     4.756000000     5.792000000     7.176000000
H     4.780000000     6.720000000     8.371000000
O     6.055000000     2.178000000     7.763000000
H     6.361000000     1.671000000     7.011000000
H     6.828000000     2.273000000     8.319000000
O     5.375000000     4.490000000     3.928000000
H     5.489000000     4.618000000     4.870000000
H     5.005000000     5.316000000     3.617000000
O     1.221000000     8.758000000     5.407000000
H     1.698000000     9.208000000     4.709000000
H     1.751000000     7.984000000     5.599000000
O     6.489000000     0.928000000     2.818000000
H     5.829000000     1.596000000     2.630000000
H     7.307000000     1.301000000     2.487000000
O     4.536000000     2.479000000     2.194000000
H     4.594000000     3.045000000     2.964000000
H     3.622000000     2.194000000     2.175000000
O    -0.706000000     5.684000000     3.991000000
H    -1.156000000     5.672000000     4.836000000
H    -0.176000000     4.887000000     3.991000000
O     4.569000000     0.548000000     4.883000000
H     3.948000000     1.276000000     4.861000000
H     5.050000000     0.619000000     4.058000000
O     3.797000000     3.335000000     9.650000000
H     3.058000000     3.597000000     9.101000000
H     4.139000000     2.545000000     9.230000000
