218
-1474.54383
C     1.589000000    -3.517000000     4.449000000
H     2.073000000    -4.168000000     3.726000000
C     0.272000000    -3.163000000     4.222000000
C    -0.297000000    -2.348000000     5.197000000
H    -1.320000000    -1.998000000     5.082000000
C    -0.537000000    -3.361000000     2.903000000
O     0.060000000    -4.488000000     2.237000000
H    -0.387000000    -2.478000000     2.265000000
O    -1.953000000    -3.510000000     3.199000000
C    -2.828000000    -3.015000000     2.352000000
C    -3.389000000    -1.770000000     2.578000000
H    -3.251000000    -1.247000000     3.521000000
C    -4.270000000    -1.268000000     1.666000000
O    -4.633000000     0.101000000     1.847000000
C    -4.548000000    -1.923000000     0.434000000
C    -5.449000000    -1.177000000    -0.634000000
H    -5.962000000    -1.919000000    -1.249000000
C    -4.607000000    -0.390000000    -1.646000000
C    -3.978000000    -0.943000000    -2.776000000
H    -4.009000000    -2.011000000    -2.976000000
H    -6.130000000    -0.522000000    -0.086000000
C    -3.906000000    -3.083000000     0.142000000
H    -3.977000000    -3.620000000    -0.800000000
C    -3.106000000    -3.686000000     1.138000000
C    -2.360000000    -5.037000000     0.834000000
H    -2.958000000    -5.629000000     0.138000000
H    -2.231000000    -5.529000000     1.801000000
C    -1.039000000    -4.850000000     0.154000000
C    -0.918000000    -4.995000000    -1.246000000
H    -1.736000000    -5.101000000    -1.955000000
C     0.139000000    -4.640000000     0.888000000
C     1.372000000    -4.462000000     0.333000000
H     2.155000000    -4.230000000     1.051000000
C     1.442000000    -4.331000000    -1.073000000
O     2.617000000    -3.831000000    -1.556000000
C     2.615000000    -2.469000000    -1.999000000
C     3.858000000    -1.748000000    -1.412000000
C     4.431000000    -0.738000000    -2.239000000
H     4.283000000    -0.595000000    -3.307000000
C     4.130000000    -1.848000000    -0.056000000
H     3.691000000    -2.619000000     0.571000000
O     2.502000000    -2.456000000    -3.469000000
H     1.696000000    -1.968000000    -1.662000000
C     0.309000000    -4.642000000    -1.861000000
C     0.379000000    -4.538000000    -3.365000000
H    -0.449000000    -5.113000000    -3.783000000
H     1.337000000    -4.929000000    -3.716000000
C     0.199000000    -3.068000000    -3.786000000
C    -1.080000000    -2.555000000    -4.122000000
H    -1.922000000    -3.241000000    -4.077000000
C     1.248000000    -2.132000000    -3.878000000
C     1.078000000    -0.766000000    -4.257000000
H     1.952000000    -0.138000000    -4.407000000
C    -0.166000000    -0.303000000    -4.629000000
O    -0.387000000     1.011000000    -4.939000000
C    -0.847000000     1.870000000    -3.834000000
C    -0.027000000     3.203000000    -3.724000000
C     1.243000000     3.230000000    -4.201000000
H     1.558000000     2.366000000    -4.781000000
C    -0.543000000     4.299000000    -2.985000000
H    -1.553000000     4.250000000    -2.586000000
O    -2.227000000     2.049000000    -4.069000000
H    -0.821000000     1.244000000    -2.929000000
C    -1.259000000    -1.219000000    -4.498000000
C    -2.652000000    -0.855000000    -4.905000000
H    -3.223000000    -1.735000000    -5.207000000
H    -2.651000000    -0.195000000    -5.775000000
C    -3.282000000    -0.111000000    -3.677000000
C    -3.131000000     1.227000000    -3.350000000
C    -3.655000000     1.727000000    -2.168000000
H    -3.368000000     2.682000000    -1.735000000
C    -4.398000000     0.976000000    -1.311000000
O    -4.863000000     1.513000000    -0.113000000
C    -3.998000000     1.112000000     0.999000000
H    -3.103000000     0.672000000     0.535000000
C    -3.470000000     2.346000000     1.784000000
C    -3.023000000     2.135000000     3.066000000
H    -2.953000000     1.119000000     3.447000000
C    -3.536000000     3.641000000     1.246000000
H    -4.065000000     3.745000000     0.303000000
C    -2.906000000     4.725000000     1.978000000
O    -2.788000000     6.007000000     1.562000000
C    -2.222000000     4.507000000     3.144000000
H    -1.631000000     5.284000000     3.621000000
C    -2.364000000     3.210000000     3.727000000
O    -1.562000000     2.886000000     4.811000000
C    -1.789000000     1.793000000     5.647000000
C    -0.824000000     0.829000000     5.895000000
H     0.010000000     0.737000000     5.203000000
C    -3.020000000     1.843000000     6.358000000
H    -3.731000000     2.642000000     6.163000000
C    -3.310000000     0.868000000     7.354000000
H    -4.337000000     0.828000000     7.708000000
C    -2.342000000    -0.076000000     7.637000000
H    -2.570000000    -0.892000000     8.318000000
C    -1.131000000    -0.112000000     6.891000000
O    -0.221000000    -1.095000000     7.200000000
C     0.375000000    -1.905000000     6.266000000
C     1.714000000    -2.318000000     6.509000000
H     2.328000000    -1.953000000     7.329000000
C     2.337000000    -3.106000000     5.515000000
O     3.720000000    -3.412000000     5.556000000
C     4.521000000    -3.398000000     4.377000000
C     4.565000000    -2.346000000     3.507000000
H     3.984000000    -1.432000000     3.602000000
C     5.369000000    -4.487000000     4.144000000
H     5.489000000    -5.236000000     4.923000000
C     6.184000000    -4.518000000     3.025000000
H     6.858000000    -5.367000000     2.945000000
C     6.246000000    -3.423000000     2.204000000
H     6.911000000    -3.324000000     1.350000000
C     5.573000000    -2.298000000     2.564000000
O     5.586000000    -1.131000000     1.799000000
C     5.193000000    -1.085000000     0.453000000
C     5.762000000    -0.058000000    -0.303000000
H     6.579000000     0.494000000     0.153000000
C     5.434000000     0.083000000    -1.695000000
O     6.131000000     1.002000000    -2.400000000
C     5.663000000     1.588000000    -3.550000000
C     4.621000000     2.527000000    -3.403000000
H     4.151000000     2.690000000    -2.437000000
C     6.333000000     1.391000000    -4.739000000
H     7.141000000     0.664000000    -4.752000000
C     5.998000000     2.209000000    -5.864000000
H     6.512000000     2.135000000    -6.819000000
C     5.022000000     3.119000000    -5.716000000
H     4.813000000     3.784000000    -6.550000000
C     4.307000000     3.319000000    -4.536000000
O     3.368000000     4.387000000    -4.491000000
C     2.039000000     4.310000000    -3.994000000
C     1.438000000     5.489000000    -3.519000000
H     1.964000000     6.418000000    -3.314000000
C     0.133000000     5.475000000    -3.037000000
O    -0.421000000     6.689000000    -2.577000000
C    -1.543000000     6.855000000    -1.778000000
C    -2.661000000     7.537000000    -2.295000000
H    -2.674000000     7.982000000    -3.286000000
C    -3.816000000     7.585000000    -1.541000000
H    -4.672000000     8.122000000    -1.944000000
C    -3.831000000     7.039000000    -0.282000000
H    -4.712000000     7.160000000     0.344000000
C    -2.751000000     6.352000000     0.253000000
C    -1.571000000     6.271000000    -0.504000000
H    -0.712000000     5.828000000    -0.008000000
C     0.314000000     2.764000000     0.414000000
H     0.074000000     3.810000000     0.244000000
C    -0.467000000     1.771000000    -0.180000000
H    -1.212000000     2.182000000    -0.856000000
C    -0.109000000     0.447000000    -0.024000000
C    -0.937000000    -0.585000000    -0.697000000
H    -0.298000000    -1.438000000    -0.936000000
H    -1.781000000    -0.883000000    -0.072000000
H    -1.362000000    -0.224000000    -1.636000000
C     0.908000000     0.114000000     0.845000000
H     1.065000000    -0.907000000     1.184000000
C     1.613000000     1.108000000     1.605000000
H     2.210000000     0.795000000     2.458000000
C     1.366000000     2.433000000     1.285000000
C     2.200000000     3.548000000     1.832000000
O     3.221000000     3.277000000     2.469000000
O     1.819000000     4.719000000     1.680000000
O    -1.176000000     7.461000000     5.043000000
H    -0.431000000     7.243000000     5.604000000
H    -1.848000000     6.822000000     5.280000000
O     1.948000000     2.056000000     6.799000000
H     1.475000000     2.856000000     7.028000000
H     2.524000000     2.316000000     6.079000000
O     0.233000000     6.803000000     2.263000000
H     0.566000000     5.930000000     2.056000000
H    -0.506000000     6.645000000     2.851000000
O     5.688000000     8.995000000     2.895000000
H     5.002000000     9.380000000     2.349000000
H     5.228000000     8.365000000     3.448000000
O     4.284000000     6.335000000     2.691000000
H     4.773000000     6.429000000     1.874000000
H     3.856000000     5.482000000     2.617000000
O     3.782000000     3.001000000     5.176000000
H     3.482000000     3.210000000     4.292000000
H     4.186000000     3.810000000     5.490000000
O     3.867000000     9.149000000    -0.494000000
H     3.141000000     8.530000000    -0.416000000
H     3.812000000     9.684000000     0.298000000
O     5.816000000     2.528000000     1.930000000
H     4.873000000     2.683000000     1.987000000
H     6.195000000     3.113000000     2.587000000
O     5.144000000     4.609000000     6.692000000
H     4.905000000     4.621000000     7.619000000
H     6.023000000     4.231000000     6.675000000
O     1.920000000     5.371000000     4.391000000
H     2.147000000     4.597000000     3.875000000
H     1.899000000     6.085000000     3.753000000
O     2.106000000     7.360000000    -0.105000000
H     2.427000000     6.507000000    -0.399000000
H     1.745000000     7.192000000     0.765000000
O     0.170000000     4.447000000     6.519000000
H     0.908000000     4.521000000     5.914000000
H    -0.465000000     3.900000000     6.056000000
O    -0.530000000     9.386000000     0.500000000
H     0.124000000     9.020000000     1.096000000
H    -1.144000000     8.668000000     0.349000000
O     5.796000000     6.191000000     0.637000000
H     6.002000000     5.306000000     0.334000000
H     5.669000000     6.695000000    -0.167000000
O     5.613000000     1.086000000     4.497000000
H     5.481000000     1.216000000     3.558000000
H     5.082000000     1.767000000     4.910000000
O     6.650000000     3.422000000    -0.433000000
H     6.670000000     2.689000000    -1.048000000
H     6.445000000     3.021000000     0.411000000
O     0.607000000     9.622000000     3.415000000
H     0.059000000    10.128000000     4.015000000
H     0.154000000     8.784000000     3.326000000
O     1.120000000     7.555000000     6.614000000
H     1.823000000     7.939000000     7.139000000
H     1.543000000     6.844000000     6.132000000
O     7.854000000     3.504000000     3.558000000
H     8.010000000     4.191000000     4.205000000
H     8.596000000     2.907000000     3.659000000
