218
-1465.19749
C     1.228000000    -3.085000000     3.894000000
H     1.746000000    -3.551000000     3.060000000
C    -0.174000000    -3.011000000     3.905000000
C    -0.834000000    -2.480000000     4.997000000
H    -1.920000000    -2.430000000     5.003000000
C    -0.949000000    -3.433000000     2.681000000
O    -0.307000000    -4.635000000     2.103000000
H    -0.891000000    -2.633000000     1.928000000
O    -2.363000000    -3.619000000     2.914000000
C    -3.196000000    -3.041000000     2.029000000
C    -3.723000000    -1.821000000     2.290000000
H    -3.410000000    -1.397000000     3.241000000
C    -4.422000000    -1.119000000     1.339000000
O    -4.775000000     0.218000000     1.599000000
C    -4.596000000    -1.670000000     0.052000000
C    -5.321000000    -0.987000000    -1.085000000
H    -5.704000000    -1.753000000    -1.762000000
C    -4.433000000    -0.087000000    -1.905000000
C    -3.929000000    -0.517000000    -3.136000000
H    -4.233000000    -1.524000000    -3.408000000
H    -6.195000000    -0.452000000    -0.707000000
C    -4.004000000    -2.919000000    -0.205000000
H    -3.994000000    -3.344000000    -1.205000000
C    -3.353000000    -3.610000000     0.761000000
C    -2.696000000    -4.950000000     0.467000000
H    -3.306000000    -5.427000000    -0.302000000
H    -2.741000000    -5.647000000     1.307000000
C    -1.314000000    -4.687000000    -0.025000000
C    -1.151000000    -4.583000000    -1.382000000
H    -2.004000000    -4.748000000    -2.035000000
C    -0.181000000    -4.563000000     0.762000000
C     1.079000000    -4.379000000     0.198000000
H     1.989000000    -4.383000000     0.792000000
C     1.232000000    -4.270000000    -1.212000000
O     2.449000000    -4.040000000    -1.745000000
C     2.688000000    -2.643000000    -2.041000000
C     4.030000000    -2.061000000    -1.551000000
C     4.661000000    -1.158000000    -2.341000000
H     4.165000000    -0.819000000    -3.247000000
C     4.603000000    -2.463000000    -0.364000000
H     4.163000000    -3.223000000     0.277000000
O     2.585000000    -2.466000000    -3.415000000
H     1.868000000    -1.991000000    -1.705000000
C     0.083000000    -4.375000000    -2.013000000
C     0.257000000    -4.263000000    -3.563000000
H    -0.609000000    -4.799000000    -3.957000000
H     1.105000000    -4.823000000    -3.964000000
C     0.272000000    -2.750000000    -4.063000000
C    -0.916000000    -2.181000000    -4.445000000
H    -1.815000000    -2.779000000    -4.570000000
C     1.390000000    -1.922000000    -3.932000000
C     1.294000000    -0.589000000    -4.243000000
H     2.063000000     0.112000000    -3.928000000
C     0.058000000    -0.011000000    -4.679000000
O    -0.065000000     1.322000000    -4.774000000
C    -0.529000000     2.061000000    -3.650000000
C     0.237000000     3.329000000    -3.444000000
C     1.530000000     3.299000000    -3.881000000
H     1.916000000     2.430000000    -4.407000000
C    -0.225000000     4.369000000    -2.699000000
H    -1.231000000     4.280000000    -2.296000000
O    -1.898000000     2.378000000    -3.936000000
H    -0.367000000     1.503000000    -2.716000000
C    -1.014000000    -0.843000000    -4.867000000
C    -2.384000000    -0.175000000    -5.166000000
H    -2.990000000    -0.987000000    -5.572000000
H    -2.366000000     0.678000000    -5.848000000
C    -2.997000000     0.288000000    -3.872000000
C    -2.812000000     1.610000000    -3.332000000
C    -3.293000000     2.047000000    -2.124000000
H    -2.969000000     2.998000000    -1.707000000
C    -4.069000000     1.190000000    -1.360000000
O    -4.534000000     1.695000000    -0.183000000
C    -3.973000000     1.241000000     1.008000000
H    -3.041000000     0.704000000     0.778000000
C    -3.537000000     2.374000000     1.966000000
C    -3.017000000     2.059000000     3.217000000
H    -2.811000000     1.028000000     3.494000000
C    -3.518000000     3.704000000     1.647000000
H    -3.985000000     3.944000000     0.695000000
C    -2.960000000     4.712000000     2.372000000
O    -3.076000000     6.019000000     1.948000000
C    -2.394000000     4.381000000     3.602000000
H    -1.902000000     5.130000000     4.216000000
C    -2.425000000     3.035000000     4.005000000
O    -1.711000000     2.793000000     5.172000000
C    -1.973000000     1.778000000     6.071000000
C    -1.075000000     0.748000000     6.207000000
H    -0.219000000     0.773000000     5.538000000
C    -3.128000000     1.868000000     6.881000000
H    -3.782000000     2.734000000     6.821000000
C    -3.371000000     0.964000000     7.861000000
H    -4.217000000     1.010000000     8.542000000
C    -2.471000000    -0.114000000     7.962000000
H    -2.696000000    -0.951000000     8.618000000
C    -1.437000000    -0.295000000     7.041000000
O    -0.639000000    -1.424000000     7.161000000
C    -0.094000000    -1.952000000     6.019000000
C     1.304000000    -1.958000000     6.000000000
H     1.803000000    -1.466000000     6.831000000
C     1.953000000    -2.505000000     4.915000000
O     3.359000000    -2.522000000     5.026000000
C     4.127000000    -3.137000000     4.157000000
C     4.733000000    -2.362000000     3.230000000
H     4.534000000    -1.293000000     3.205000000
C     4.527000000    -4.472000000     4.341000000
H     4.197000000    -5.017000000     5.221000000
C     5.429000000    -5.072000000     3.451000000
H     5.895000000    -6.034000000     3.652000000
C     5.981000000    -4.239000000     2.440000000
H     6.747000000    -4.745000000     1.859000000
C     5.629000000    -2.944000000     2.331000000
O     6.263000000    -2.255000000     1.356000000
C     5.778000000    -1.858000000     0.109000000
C     6.301000000    -0.809000000    -0.615000000
H     7.165000000    -0.261000000    -0.248000000
C     5.782000000    -0.511000000    -1.869000000
O     6.369000000     0.496000000    -2.607000000
C     5.771000000     1.233000000    -3.569000000
C     4.943000000     2.294000000    -3.349000000
H     4.671000000     2.504000000    -2.318000000
C     6.101000000     0.979000000    -4.917000000
H     6.776000000     0.171000000    -5.184000000
C     5.650000000     1.902000000    -5.929000000
H     6.024000000     1.927000000    -6.949000000
C     4.937000000     3.091000000    -5.617000000
H     4.673000000     3.869000000    -6.328000000
C     4.459000000     3.167000000    -4.338000000
O     3.743000000     4.277000000    -4.039000000
C     2.421000000     4.287000000    -3.587000000
C     1.960000000     5.407000000    -2.899000000
H     2.625000000     6.165000000    -2.494000000
C     0.628000000     5.400000000    -2.388000000
O     0.206000000     6.471000000    -1.580000000
C    -1.066000000     6.681000000    -1.085000000
C    -2.047000000     7.274000000    -1.881000000
H    -1.777000000     7.444000000    -2.920000000
C    -3.361000000     7.526000000    -1.429000000
H    -4.087000000     8.013000000    -2.075000000
C    -3.697000000     7.137000000    -0.174000000
H    -4.697000000     7.323000000     0.209000000
C    -2.722000000     6.429000000     0.631000000
C    -1.404000000     6.281000000     0.173000000
H    -0.646000000     5.782000000     0.772000000
C     0.532000000     1.733000000     1.889000000
H     0.360000000     2.753000000     2.223000000
C    -0.243000000     1.221000000     0.830000000
H    -1.044000000     1.805000000     0.386000000
C    -0.004000000    -0.080000000     0.376000000
C    -0.761000000    -0.702000000    -0.738000000
H    -0.756000000    -0.197000000    -1.706000000
H    -0.368000000    -1.715000000    -0.844000000
H    -1.810000000    -0.768000000    -0.444000000
C     0.994000000    -0.785000000     1.025000000
H     1.137000000    -1.808000000     0.689000000
C     1.638000000    -0.338000000     2.101000000
H     2.366000000    -0.972000000     2.600000000
C     1.465000000     0.945000000     2.497000000
C     2.322000000     1.535000000     3.626000000
O     3.173000000     0.866000000     4.216000000
O     2.328000000     2.746000000     3.747000000
O     4.047000000    -1.165000000     8.184000000
H     4.398000000    -2.046000000     8.053000000
H     4.198000000    -0.721000000     7.350000000
O     5.896000000     5.562000000     2.791000000
H     5.892000000     6.519000000     2.763000000
H     5.677000000     5.295000000     1.899000000
O     1.605000000     7.104000000     3.430000000
H     1.239000000     7.420000000     2.603000000
H     1.917000000     7.894000000     3.871000000
O     4.339000000     3.498000000     9.097000000
H     4.014000000     2.740000000     9.583000000
H     3.638000000     3.707000000     8.480000000
O     2.376000000     0.819000000     9.464000000
H     2.332000000     1.174000000     8.576000000
H     2.800000000    -0.033000000     9.360000000
O     2.109000000     4.820000000     2.027000000
H     2.007000000     3.956000000     2.425000000
H     1.839000000     5.433000000     2.710000000
O     4.268000000     4.176000000     4.538000000
H     4.899000000     4.218000000     3.819000000
H     3.549000000     3.644000000     4.195000000
O     1.756000000     1.617000000     6.882000000
H     1.922000000     1.696000000     5.943000000
H     1.575000000     2.512000000     7.170000000
O     6.169000000     2.249000000     5.725000000
H     6.698000000     2.653000000     6.413000000
H     5.356000000     2.754000000     5.719000000
O     5.597000000     0.863000000     2.041000000
H     5.078000000     0.842000000     2.845000000
H     5.072000000     0.380000000     1.403000000
O     1.723000000     4.105000000     7.822000000
H     1.489000000     4.586000000     7.028000000
H     1.060000000     4.364000000     8.462000000
O     1.073000000     4.953000000     5.289000000
H     1.196000000     4.162000000     4.765000000
H     1.123000000     5.670000000     4.657000000
O     3.496000000     7.172000000     1.330000000
H     3.184000000     6.474000000     0.754000000
H     3.372000000     6.827000000     2.214000000
O    -0.877000000     6.034000000     7.010000000
H    -0.897000000     5.403000000     7.729000000
H    -0.142000000     5.752000000     6.465000000
O     5.607000000     5.041000000     0.104000000
H     5.549000000     5.782000000    -0.499000000
H     4.697000000     4.810000000     0.289000000
O     3.874000000     5.948000000     6.617000000
H     3.992000000     5.334000000     5.892000000
H     4.565000000     6.598000000     6.496000000
O     4.913000000    -0.075000000     5.829000000
H     5.431000000     0.728000000     5.871000000
H     4.209000000     0.125000000     5.211000000
O     1.919000000     1.480000000    -1.108000000
H     1.629000000     0.857000000    -0.441000000
H     2.073000000     2.292000000    -0.626000000
O     7.859000000     1.235000000     3.587000000
H     7.228000000     0.953000000     2.924000000
H     7.344000000     1.314000000     4.390000000
