218
-1468.82184
C     0.632000000    -4.157000000     3.443000000
H     0.652000000    -5.118000000     2.935000000
C    -0.437000000    -3.291000000     3.258000000
C    -0.575000000    -2.146000000     4.090000000
H    -1.461000000    -1.515000000     4.087000000
C    -1.407000000    -3.352000000     2.175000000
O    -1.381000000    -4.593000000     1.448000000
H    -1.136000000    -2.524000000     1.504000000
O    -2.744000000    -3.092000000     2.636000000
C    -3.521000000    -2.298000000     1.827000000
C    -3.776000000    -0.997000000     2.285000000
H    -3.424000000    -0.736000000     3.280000000
C    -4.418000000    -0.063000000     1.557000000
O    -4.356000000     1.179000000     2.073000000
C    -4.927000000    -0.357000000     0.274000000
C    -5.552000000     0.652000000    -0.674000000
H    -6.175000000     0.037000000    -1.326000000
C    -4.528000000     1.418000000    -1.434000000
C    -4.155000000     0.935000000    -2.659000000
H    -4.545000000    -0.007000000    -3.034000000
H    -6.281000000     1.221000000    -0.093000000
C    -4.719000000    -1.695000000    -0.206000000
H    -4.927000000    -1.916000000    -1.250000000
C    -3.997000000    -2.616000000     0.558000000
C    -3.784000000    -4.027000000    -0.034000000
H    -4.569000000    -4.194000000    -0.775000000
H    -3.983000000    -4.835000000     0.674000000
C    -2.499000000    -4.280000000    -0.719000000
C    -2.361000000    -4.052000000    -2.088000000
H    -3.239000000    -3.750000000    -2.653000000
C    -1.343000000    -4.510000000     0.083000000
C    -0.084000000    -4.641000000    -0.567000000
H     0.759000000    -4.913000000     0.062000000
C     0.000000000    -4.318000000    -1.915000000
O     1.335000000    -4.202000000    -2.346000000
C     1.935000000    -2.868000000    -2.616000000
C     3.309000000    -2.755000000    -1.997000000
C     4.077000000    -1.634000000    -2.332000000
H     3.695000000    -0.952000000    -3.088000000
C     3.725000000    -3.636000000    -1.036000000
H     3.178000000    -4.517000000    -0.708000000
O     1.787000000    -2.467000000    -3.992000000
H     1.271000000    -2.252000000    -1.993000000
C    -1.116000000    -4.083000000    -2.658000000
C    -1.037000000    -3.648000000    -4.090000000
H    -1.983000000    -3.846000000    -4.599000000
H    -0.320000000    -4.334000000    -4.546000000
C    -0.717000000    -2.196000000    -4.252000000
C    -1.786000000    -1.318000000    -4.513000000
H    -2.819000000    -1.652000000    -4.567000000
C     0.604000000    -1.710000000    -4.274000000
C     0.797000000    -0.347000000    -4.367000000
H     1.795000000     0.076000000    -4.288000000
C    -0.254000000     0.542000000    -4.532000000
O     0.094000000     1.919000000    -4.622000000
C    -0.224000000     2.591000000    -3.363000000
C     1.000000000     3.425000000    -2.955000000
C     2.272000000     3.165000000    -3.496000000
H     2.339000000     2.414000000    -4.279000000
C     0.842000000     4.392000000    -1.919000000
H    -0.129000000     4.490000000    -1.441000000
O    -1.534000000     3.313000000    -3.548000000
H    -0.438000000     1.796000000    -2.632000000
C    -1.541000000     0.069000000    -4.690000000
C    -2.674000000     1.106000000    -4.796000000
H    -3.475000000     0.655000000    -5.386000000
H    -2.259000000     1.898000000    -5.423000000
C    -3.177000000     1.677000000    -3.437000000
C    -2.558000000     2.753000000    -2.868000000
C    -2.916000000     3.216000000    -1.600000000
H    -2.404000000     4.056000000    -1.138000000
C    -3.858000000     2.523000000    -0.890000000
O    -4.052000000     2.860000000     0.413000000
C    -3.444000000     2.148000000     1.578000000
H    -2.575000000     1.618000000     1.161000000
C    -2.891000000     3.199000000     2.571000000
C    -2.624000000     2.806000000     3.912000000
H    -3.064000000     1.891000000     4.300000000
C    -2.402000000     4.474000000     2.167000000
H    -2.412000000     4.677000000     1.100000000
C    -1.909000000     5.356000000     3.139000000
O    -1.421000000     6.627000000     2.843000000
C    -1.771000000     5.021000000     4.508000000
H    -1.238000000     5.695000000     5.174000000
C    -2.073000000     3.724000000     4.785000000
O    -1.938000000     3.449000000     6.159000000
C    -1.703000000     2.197000000     6.554000000
C    -0.813000000     1.334000000     5.825000000
H    -0.227000000     1.686000000     4.980000000
C    -2.319000000     1.667000000     7.674000000
H    -2.984000000     2.242000000     8.313000000
C    -2.170000000     0.337000000     7.975000000
H    -2.809000000    -0.001000000     8.787000000
C    -1.296000000    -0.533000000     7.298000000
H    -1.149000000    -1.589000000     7.512000000
C    -0.563000000     0.058000000     6.279000000
O     0.488000000    -0.650000000     5.764000000
C     0.497000000    -1.817000000     5.005000000
C     1.557000000    -2.752000000     5.105000000
H     2.371000000    -2.530000000     5.789000000
C     1.632000000    -3.948000000     4.340000000
O     2.718000000    -4.860000000     4.468000000
C     3.244000000    -5.404000000     3.304000000
C     3.835000000    -4.556000000     2.313000000
H     3.784000000    -3.472000000     2.370000000
C     3.220000000    -6.775000000     3.071000000
H     2.760000000    -7.410000000     3.824000000
C     3.846000000    -7.375000000     1.933000000
H     3.661000000    -8.438000000     1.798000000
C     4.466000000    -6.534000000     0.999000000
H     4.939000000    -6.913000000     0.096000000
C     4.494000000    -5.139000000     1.252000000
O     5.416000000    -4.387000000     0.499000000
C     4.907000000    -3.450000000    -0.405000000
C     5.747000000    -2.379000000    -0.787000000
H     6.717000000    -2.234000000    -0.319000000
C     5.360000000    -1.519000000    -1.786000000
O     6.272000000    -0.542000000    -2.138000000
C     6.055000000     0.355000000    -3.186000000
C     5.487000000     1.583000000    -2.924000000
H     5.442000000     1.962000000    -1.906000000
C     5.986000000    -0.142000000    -4.482000000
H     6.342000000    -1.146000000    -4.698000000
C     5.469000000     0.643000000    -5.596000000
H     5.650000000     0.441000000    -6.649000000
C     4.984000000     1.912000000    -5.252000000
H     4.674000000     2.631000000    -6.006000000
C     4.990000000     2.383000000    -3.956000000
O     4.560000000     3.631000000    -3.636000000
C     3.355000000     3.885000000    -3.068000000
C     3.236000000     4.791000000    -1.984000000
H     4.169000000     5.246000000    -1.663000000
C     1.976000000     5.078000000    -1.458000000
O     1.946000000     5.986000000    -0.490000000
C     0.735000000     6.597000000    -0.058000000
C     0.100000000     7.476000000    -0.928000000
H     0.703000000     7.625000000    -1.821000000
C    -1.083000000     8.147000000    -0.522000000
H    -1.541000000     8.855000000    -1.209000000
C    -1.537000000     7.853000000     0.760000000
H    -2.459000000     8.306000000     1.115000000
C    -0.929000000     6.935000000     1.612000000
C     0.253000000     6.337000000     1.194000000
H     0.777000000     5.614000000     1.814000000
C     0.782000000     1.854000000     1.160000000
H     0.768000000     2.931000000     1.310000000
C    -0.169000000     1.323000000     0.327000000
H    -0.955000000     1.874000000    -0.185000000
C    -0.126000000    -0.016000000     0.002000000
C    -1.177000000    -0.558000000    -0.912000000
H    -2.165000000    -0.351000000    -0.496000000
H    -0.924000000    -0.196000000    -1.911000000
H    -1.179000000    -1.649000000    -0.956000000
C     0.791000000    -0.850000000     0.617000000
H     0.910000000    -1.892000000     0.333000000
C     1.742000000    -0.344000000     1.508000000
H     2.495000000    -1.016000000     1.912000000
C     1.773000000     1.032000000     1.719000000
C     2.634000000     1.585000000     2.789000000
O     3.379000000     0.883000000     3.428000000
O     2.752000000     2.809000000     2.941000000
O     6.976000000     2.849000000     1.163000000
H     6.722000000     2.003000000     1.530000000
H     6.210000000     3.133000000     0.664000000
O     7.468000000     2.164000000     6.240000000
H     8.215000000     2.570000000     5.801000000
H     6.711000000     2.424000000     5.715000000
O     0.799000000     7.596000000     4.337000000
H     1.259000000     6.757000000     4.323000000
H     0.145000000     7.523000000     3.642000000
O     8.795000000     0.950000000     3.194000000
H     8.970000000     0.253000000     2.562000000
H     7.911000000     0.769000000     3.512000000
O     5.011000000     2.997000000     4.723000000
H     4.702000000     2.647000000     5.559000000
H     4.374000000     2.682000000     4.081000000
O     7.245000000     6.146000000     1.419000000
H     6.910000000     5.795000000     2.244000000
H     7.339000000     5.380000000     0.853000000
O     3.391000000     0.542000000     8.104000000
H     3.347000000    -0.191000000     7.489000000
H     2.797000000     1.197000000     7.738000000
O     6.240000000     5.333000000     4.194000000
H     5.991000000     4.438000000     4.422000000
H     6.024000000     5.847000000     4.973000000
O     5.951000000     0.561000000     2.557000000
H     5.059000000     0.675000000     2.886000000
H     6.095000000    -0.385000000     2.579000000
O     7.131000000    -2.020000000     2.362000000
H     6.939000000    -2.928000000     2.126000000
H     8.043000000    -2.035000000     2.651000000
O     8.413000000     2.349000000    -0.975000000
H     9.097000000     2.996000000    -0.800000000
H     8.008000000     2.193000000    -0.122000000
O     2.607000000     1.981000000     5.920000000
H     2.931000000     1.084000000     5.841000000
H     2.513000000     2.282000000     5.016000000
O     2.000000000     5.024000000     3.969000000
H     1.769000000     4.817000000     4.875000000
H     2.421000000     4.229000000     3.641000000
O     4.018000000    -0.382000000     5.537000000
H     4.666000000    -1.085000000     5.486000000
H     4.014000000     0.005000000     4.662000000
O     3.735000000     6.520000000     2.690000000
H     3.028000000     5.998000000     3.069000000
H     4.489000000     5.930000000     2.678000000
O     4.279000000     3.336000000     0.824000000
H     3.483000000     3.365000000     0.294000000
H     3.964000000     3.321000000     1.728000000
O     3.477000000     5.296000000     6.675000000
H     2.603000000     4.907000000     6.649000000
H     3.983000000     4.711000000     7.238000000
O     6.039000000    -2.586000000     5.182000000
H     6.585000000    -1.800000000     5.142000000
H     6.663000000    -3.305000000     5.277000000
O     1.031000000     4.135000000     6.314000000
H     1.265000000     3.209000000     6.253000000
H     0.523000000     4.201000000     7.122000000
