218
-1466.13982
C     0.527000000    -3.640000000     3.519000000
H     0.386000000    -4.612000000     3.054000000
C    -0.394000000    -2.711000000     3.203000000
C    -0.228000000    -1.385000000     3.723000000
H    -0.801000000    -0.562000000     3.304000000
C    -1.401000000    -3.035000000     2.183000000
O    -1.309000000    -4.379000000     1.682000000
H    -1.268000000    -2.208000000     1.470000000
O    -2.781000000    -2.938000000     2.693000000
C    -3.630000000    -2.290000000     1.813000000
C    -4.142000000    -0.999000000     2.108000000
H    -3.854000000    -0.642000000     3.094000000
C    -4.747000000    -0.218000000     1.194000000
O    -5.107000000     1.061000000     1.515000000
C    -5.010000000    -0.681000000    -0.121000000
C    -5.622000000     0.207000000    -1.076000000
H    -6.225000000    -0.415000000    -1.740000000
C    -4.644000000     0.975000000    -1.944000000
C    -4.087000000     0.491000000    -3.155000000
H    -4.473000000    -0.392000000    -3.659000000
H    -6.338000000     0.872000000    -0.588000000
C    -4.583000000    -1.993000000    -0.437000000
H    -4.616000000    -2.387000000    -1.449000000
C    -3.931000000    -2.803000000     0.548000000
C    -3.689000000    -4.225000000     0.124000000
H    -4.470000000    -4.622000000    -0.528000000
H    -3.709000000    -4.944000000     0.945000000
C    -2.271000000    -4.403000000    -0.500000000
C    -2.135000000    -4.173000000    -1.881000000
H    -2.956000000    -4.000000000    -2.572000000
C    -1.157000000    -4.589000000     0.347000000
C     0.113000000    -4.672000000    -0.194000000
H     0.959000000    -4.703000000     0.487000000
C     0.240000000    -4.443000000    -1.529000000
O     1.514000000    -4.417000000    -2.006000000
C     2.086000000    -3.107000000    -2.223000000
C     3.481000000    -2.927000000    -1.585000000
C     4.331000000    -1.880000000    -1.928000000
H     4.058000000    -1.320000000    -2.819000000
C     3.882000000    -3.704000000    -0.528000000
H     3.296000000    -4.543000000    -0.160000000
O     2.078000000    -2.819000000    -3.625000000
H     1.454000000    -2.372000000    -1.704000000
C    -0.861000000    -4.175000000    -2.364000000
C    -0.563000000    -4.083000000    -3.860000000
H    -1.439000000    -4.467000000    -4.387000000
H     0.329000000    -4.678000000    -4.070000000
C    -0.285000000    -2.619000000    -4.211000000
C    -1.283000000    -1.793000000    -4.627000000
H    -2.276000000    -2.231000000    -4.674000000
C     0.994000000    -2.053000000    -4.046000000
C     1.226000000    -0.668000000    -4.233000000
H     2.239000000    -0.294000000    -4.108000000
C     0.118000000     0.140000000    -4.579000000
O     0.408000000     1.482000000    -4.513000000
C     0.007000000     2.219000000    -3.329000000
C     1.088000000     3.262000000    -3.033000000
C     2.433000000     3.078000000    -3.307000000
H     2.803000000     2.196000000    -3.823000000
C     0.692000000     4.294000000    -2.218000000
H    -0.342000000     4.490000000    -1.945000000
O    -1.276000000     2.787000000    -3.480000000
H     0.063000000     1.627000000    -2.404000000
C    -1.153000000    -0.449000000    -4.750000000
C    -2.350000000     0.413000000    -5.033000000
H    -3.064000000    -0.080000000    -5.696000000
H    -2.027000000     1.240000000    -5.669000000
C    -2.931000000     1.049000000    -3.749000000
C    -2.362000000     2.158000000    -3.103000000
C    -2.967000000     2.692000000    -1.974000000
H    -2.498000000     3.529000000    -1.463000000
C    -4.133000000     2.147000000    -1.424000000
O    -4.615000000     2.566000000    -0.228000000
C    -4.125000000     2.065000000     1.054000000
H    -3.225000000     1.467000000     0.848000000
C    -3.723000000     3.047000000     2.077000000
C    -3.411000000     2.672000000     3.387000000
H    -3.653000000     1.671000000     3.732000000
C    -3.508000000     4.375000000     1.653000000
H    -3.708000000     4.688000000     0.631000000
C    -2.985000000     5.252000000     2.598000000
O    -2.619000000     6.550000000     2.135000000
C    -2.702000000     4.883000000     3.894000000
H    -2.262000000     5.600000000     4.582000000
C    -2.891000000     3.561000000     4.326000000
O    -2.734000000     3.222000000     5.596000000
C    -1.885000000     2.238000000     6.023000000
C    -0.790000000     1.665000000     5.256000000
H    -0.559000000     1.912000000     4.223000000
C    -1.972000000     1.884000000     7.367000000
H    -2.738000000     2.344000000     7.986000000
C    -1.123000000     0.937000000     7.926000000
H    -1.314000000     0.559000000     8.927000000
C    -0.182000000     0.291000000     7.152000000
H     0.585000000    -0.377000000     7.536000000
C     0.008000000     0.704000000     5.841000000
O     1.008000000     0.139000000     5.155000000
C     0.798000000    -1.147000000     4.629000000
C     1.641000000    -2.122000000     5.010000000
H     2.476000000    -1.901000000     5.670000000
C     1.534000000    -3.408000000     4.388000000
O     2.404000000    -4.372000000     4.725000000
C     3.207000000    -5.042000000     3.836000000
C     3.970000000    -4.301000000     2.953000000
H     4.167000000    -3.239000000     3.071000000
C     3.066000000    -6.407000000     3.680000000
H     2.431000000    -6.910000000     4.405000000
C     3.845000000    -7.075000000     2.691000000
H     3.735000000    -8.149000000     2.561000000
C     4.659000000    -6.316000000     1.820000000
H     5.172000000    -6.805000000     0.995000000
C     4.712000000    -4.924000000     1.883000000
O     5.518000000    -4.195000000     1.100000000
C     5.130000000    -3.452000000     0.054000000
C     5.960000000    -2.377000000    -0.271000000
H     6.885000000    -2.228000000     0.281000000
C     5.441000000    -1.514000000    -1.251000000
O     6.214000000    -0.391000000    -1.512000000
C     5.998000000     0.489000000    -2.514000000
C     5.676000000     1.799000000    -2.175000000
H     5.537000000     1.877000000    -1.099000000
C     6.328000000     0.163000000    -3.824000000
H     6.681000000    -0.815000000    -4.140000000
C     6.192000000     1.173000000    -4.832000000
H     6.470000000     0.928000000    -5.854000000
C     5.589000000     2.406000000    -4.481000000
H     5.273000000     3.107000000    -5.249000000
C     5.225000000     2.656000000    -3.182000000
O     4.692000000     3.785000000    -2.779000000
C     3.349000000     4.012000000    -2.814000000
C     2.943000000     5.154000000    -2.117000000
H     3.671000000     5.841000000    -1.693000000
C     1.612000000     5.247000000    -1.838000000
O     1.276000000     6.181000000    -0.861000000
C    -0.034000000     6.606000000    -0.622000000
C    -0.622000000     7.568000000    -1.411000000
H    -0.162000000     7.974000000    -2.308000000
C    -1.869000000     8.091000000    -1.101000000
H    -2.289000000     8.886000000    -1.711000000
C    -2.508000000     7.753000000     0.095000000
H    -3.396000000     8.310000000     0.379000000
C    -1.904000000     6.780000000     0.932000000
C    -0.731000000     6.143000000     0.508000000
H    -0.245000000     5.511000000     1.246000000
C     0.795000000     1.910000000     1.764000000
H     0.672000000     2.946000000     2.070000000
C    -0.057000000     1.315000000     0.881000000
H    -0.941000000     1.850000000     0.544000000
C     0.173000000     0.087000000     0.395000000
C    -0.797000000    -0.621000000    -0.571000000
H    -1.835000000    -0.401000000    -0.313000000
H    -0.730000000    -0.246000000    -1.595000000
H    -0.656000000    -1.703000000    -0.603000000
C     1.315000000    -0.603000000     0.823000000
H     1.581000000    -1.522000000     0.308000000
C     2.186000000    -0.076000000     1.790000000
H     3.086000000    -0.593000000     2.111000000
C     1.947000000     1.237000000     2.195000000
C     2.928000000     1.823000000     3.121000000
O     4.081000000     1.341000000     3.208000000
O     2.727000000     2.836000000     3.704000000
O     6.114000000     4.833000000     0.404000000
H     5.488000000     5.219000000    -0.208000000
H     5.686000000     4.899000000     1.258000000
O     7.600000000     2.534000000     1.145000000
H     7.054000000     3.314000000     1.046000000
H     7.005000000     1.867000000     1.489000000
O     5.677000000     3.438000000     3.941000000
H     4.941000000     2.840000000     4.078000000
H     5.294000000     4.190000000     3.490000000
O     8.039000000     5.454000000     2.825000000
H     8.592000000     5.000000000     2.188000000
H     8.496000000     5.345000000     3.659000000
O     3.183000000    -0.015000000     8.260000000
H     3.039000000     0.925000000     8.362000000
H     3.800000000    -0.085000000     7.531000000
O     7.644000000     3.389000000     5.722000000
H     7.190000000     3.789000000     6.465000000
H     6.962000000     3.267000000     5.062000000
O     6.049000000    -0.139000000     2.065000000
H     5.378000000     0.473000000     2.366000000
H     5.724000000    -0.455000000     1.222000000
O     7.399000000    -1.018000000     4.095000000
H     6.945000000    -0.831000000     3.273000000
H     8.327000000    -0.909000000     3.885000000
O     2.875000000     2.858000000     6.304000000
H     2.452000000     2.009000000     6.432000000
H     2.820000000     3.013000000     5.361000000
O     1.191000000     5.050000000     3.972000000
H     1.269000000     5.335000000     4.882000000
H     1.630000000     4.200000000     3.948000000
O     4.722000000    -0.424000000     5.049000000
H     4.259000000     0.081000000     4.380000000
H     5.637000000    -0.156000000     4.961000000
O     4.188000000     5.219000000     2.630000000
H     3.885000000     6.119000000     2.750000000
H     3.411000000     4.682000000     2.786000000
O     1.664000000     2.461000000     8.730000000
H     0.876000000     2.875000000     8.377000000
H     2.367000000     2.753000000     8.150000000
O     5.473000000     3.714000000     7.595000000
H     4.923000000     3.341000000     6.906000000
H     5.206000000     3.254000000     8.390000000
O     2.647000000    -2.778000000     8.078000000
H     3.433000000    -3.292000000     7.892000000
H     2.965000000    -1.880000000     8.172000000
O     3.204000000     8.127000000     5.640000000
H     3.041000000     7.260000000     6.011000000
H     2.707000000     8.724000000     6.199000000
O     6.535000000    -3.726000000     4.477000000
H     7.155000000    -4.186000000     3.912000000
H     6.826000000    -2.814000000     4.460000000
O     7.867000000    -0.218000000     6.603000000
H     8.037000000     0.684000000     6.332000000
H     7.760000000    -0.699000000     5.782000000
O     2.708000000     5.631000000     6.661000000
H     3.169000000     4.798000000     6.562000000
H     1.982000000     5.434000000     7.252000000
