218
-1490.62599
C    -4.626000000     0.210000000    -2.469000000
H    -4.358000000     0.992000000    -3.175000000
C    -4.694000000     0.477000000    -1.116000000
C    -5.309000000    -0.479000000    -0.302000000
H    -5.339000000    -0.371000000     0.779000000
C    -3.839000000     1.662000000    -0.505000000
O    -3.828000000     2.759000000    -1.496000000
H    -2.846000000     1.195000000    -0.437000000
O    -4.340000000     1.984000000     0.723000000
C    -3.500000000     2.270000000     1.768000000
C    -3.418000000     1.295000000     2.772000000
H    -3.827000000     0.292000000     2.679000000
C    -2.463000000     1.499000000     3.807000000
O    -2.031000000     0.505000000     4.628000000
C    -1.665000000     2.664000000     3.810000000
C    -0.426000000     2.758000000     4.763000000
H    -0.181000000     3.809000000     4.929000000
C     0.921000000     2.130000000     4.243000000
C     1.860000000     2.919000000     3.639000000
H     1.610000000     3.944000000     3.376000000
H    -0.648000000     2.297000000     5.727000000
C    -1.910000000     3.698000000     2.827000000
H    -1.212000000     4.523000000     2.709000000
C    -2.899000000     3.517000000     1.826000000
C    -3.032000000     4.552000000     0.709000000
H    -2.717000000     5.502000000     1.145000000
H    -4.093000000     4.670000000     0.482000000
C    -2.154000000     4.298000000    -0.520000000
C    -0.926000000     4.891000000    -0.527000000
H    -0.705000000     5.602000000     0.265000000
C    -2.644000000     3.420000000    -1.555000000
C    -1.770000000     3.091000000    -2.587000000
H    -2.106000000     2.358000000    -3.317000000
C    -0.504000000     3.710000000    -2.566000000
O     0.333000000     3.369000000    -3.630000000
C     1.372000000     2.390000000    -3.372000000
C     1.449000000     1.227000000    -4.341000000
C     2.618000000     0.533000000    -4.548000000
H     3.502000000     0.831000000    -3.990000000
C     0.262000000     0.750000000    -4.930000000
H    -0.727000000     1.160000000    -4.743000000
O     2.595000000     3.065000000    -3.134000000
H     1.131000000     1.848000000    -2.445000000
C    -0.009000000     4.563000000    -1.571000000
C     1.373000000     5.148000000    -1.590000000
H     1.554000000     6.097000000    -1.081000000
H     1.522000000     5.448000000    -2.629000000
C     2.455000000     4.199000000    -1.047000000
C     2.850000000     4.207000000     0.304000000
H     2.480000000     4.952000000     1.004000000
C     2.984000000     3.199000000    -1.830000000
C     3.889000000     2.232000000    -1.317000000
H     4.387000000     1.543000000    -1.994000000
C     4.107000000     2.135000000     0.052000000
O     4.914000000     1.134000000     0.554000000
C     4.230000000     0.135000000     1.347000000
C     4.647000000    -1.249000000     0.878000000
C     5.144000000    -1.571000000    -0.399000000
H     5.146000000    -0.811000000    -1.177000000
C     4.524000000    -2.259000000     1.860000000
H     4.080000000    -2.099000000     2.839000000
O     4.365000000     0.339000000     2.795000000
H     3.166000000     0.258000000     1.095000000
C     3.639000000     3.166000000     0.890000000
C     3.971000000     3.243000000     2.371000000
H     3.865000000     4.288000000     2.672000000
H     5.001000000     2.922000000     2.538000000
C     3.081000000     2.359000000     3.129000000
C     3.360000000     1.036000000     3.425000000
C     2.380000000     0.252000000     3.961000000
H     2.611000000    -0.805000000     4.062000000
C     1.119000000     0.746000000     4.326000000
O     0.143000000    -0.159000000     4.670000000
C    -1.100000000    -0.317000000     3.961000000
H    -0.909000000     0.010000000     2.928000000
C    -1.485000000    -1.816000000     3.944000000
C    -2.826000000    -2.208000000     4.043000000
H    -3.566000000    -1.442000000     4.259000000
C    -0.473000000    -2.793000000     3.717000000
H     0.581000000    -2.577000000     3.561000000
C    -0.855000000    -4.115000000     3.521000000
O     0.155000000    -5.031000000     3.153000000
C    -2.130000000    -4.504000000     3.696000000
H    -2.429000000    -5.529000000     3.492000000
C    -3.112000000    -3.563000000     3.937000000
O    -4.414000000    -4.064000000     3.872000000
C    -5.448000000    -3.400000000     3.227000000
C    -5.474000000    -3.325000000     1.844000000
H    -4.737000000    -3.865000000     1.255000000
C    -6.356000000    -2.671000000     4.039000000
H    -6.215000000    -2.687000000     5.116000000
C    -7.267000000    -1.821000000     3.410000000
H    -7.984000000    -1.321000000     4.057000000
C    -7.423000000    -1.833000000     2.048000000
H    -8.262000000    -1.302000000     1.606000000
C    -6.527000000    -2.557000000     1.274000000
O    -6.706000000    -2.472000000    -0.075000000
C    -6.047000000    -1.562000000    -0.838000000
C    -6.026000000    -1.746000000    -2.193000000
H    -6.669000000    -2.538000000    -2.568000000
C    -5.286000000    -0.917000000    -3.059000000
O    -5.377000000    -1.027000000    -4.493000000
C    -4.445000000    -0.511000000    -5.346000000
C    -3.134000000    -0.935000000    -5.392000000
H    -2.853000000    -1.757000000    -4.738000000
C    -4.798000000     0.506000000    -6.272000000
H    -5.807000000     0.905000000    -6.342000000
C    -3.890000000     1.084000000    -7.140000000
H    -4.190000000     1.826000000    -7.877000000
C    -2.560000000     0.678000000    -7.132000000
H    -1.819000000     1.175000000    -7.752000000
C    -2.215000000    -0.358000000    -6.247000000
O    -0.919000000    -0.916000000    -6.270000000
C     0.273000000    -0.338000000    -5.776000000
C     1.474000000    -0.965000000    -6.033000000
H     1.610000000    -1.778000000    -6.742000000
C     2.640000000    -0.603000000    -5.357000000
O     3.847000000    -1.177000000    -5.718000000
C     4.858000000    -1.250000000    -4.803000000
C     4.878000000    -2.263000000    -3.860000000
H     4.108000000    -3.030000000    -3.891000000
C     5.911000000    -0.344000000    -5.006000000
H     5.837000000     0.382000000    -5.811000000
C     7.101000000    -0.552000000    -4.196000000
H     7.909000000     0.166000000    -4.306000000
C     7.083000000    -1.472000000    -3.136000000
H     7.929000000    -1.518000000    -2.455000000
C     5.997000000    -2.296000000    -3.027000000
O     5.967000000    -3.189000000    -2.017000000
C     5.542000000    -2.875000000    -0.726000000
C     5.332000000    -3.854000000     0.201000000
H     5.445000000    -4.896000000    -0.085000000
C     4.935000000    -3.567000000     1.511000000
O     4.793000000    -4.593000000     2.426000000
C     3.778000000    -4.716000000     3.332000000
C     4.033000000    -4.492000000     4.733000000
H     5.050000000    -4.270000000     5.046000000
C     2.930000000    -4.601000000     5.600000000
H     3.108000000    -4.547000000     6.671000000
C     1.622000000    -4.760000000     5.085000000
H     0.790000000    -4.710000000     5.783000000
C     1.412000000    -4.872000000     3.692000000
C     2.506000000    -4.948000000     2.832000000
H     2.420000000    -5.246000000     1.791000000
C     1.407000000    -2.641000000    -1.330000000
H     2.117000000    -3.379000000    -0.966000000
C     1.121000000    -1.535000000    -0.573000000
H     1.644000000    -1.433000000     0.375000000
C     0.203000000    -0.601000000    -0.945000000
C    -0.034000000     0.602000000    -0.072000000
H    -0.687000000     1.340000000    -0.543000000
H    -0.505000000     0.386000000     0.889000000
H     0.907000000     1.137000000     0.077000000
C    -0.596000000    -0.791000000    -2.099000000
H    -1.288000000    -0.010000000    -2.403000000
C    -0.398000000    -1.962000000    -2.819000000
H    -0.970000000    -2.081000000    -3.736000000
C     0.651000000    -2.891000000    -2.474000000
C     0.884000000    -4.147000000    -3.271000000
O     0.156000000    -4.459000000    -4.268000000
O     1.748000000    -4.912000000    -2.891000000
O    -0.278000000    -6.752000000    -5.683000000
H    -0.079000000    -5.987000000    -5.143000000
H    -0.796000000    -7.319000000    -5.112000000
O     1.171000000    -6.341000000    -8.048000000
H     0.551000000    -6.775000000    -7.461000000
H     0.638000000    -6.057000000    -8.790000000
O     5.443000000    -7.115000000    -6.820000000
H     5.807000000    -7.761000000    -7.424000000
H     4.868000000    -6.576000000    -7.363000000
O     0.536000000    -3.255000000    -9.517000000
H    -0.371000000    -3.560000000    -9.484000000
H     0.686000000    -3.051000000   -10.440000000
O    -4.910000000    -4.440000000    -3.370000000
H    -4.959000000    -4.254000000    -4.308000000
H    -4.035000000    -4.808000000    -3.245000000
O     4.183000000    -6.442000000    -3.117000000
H     3.592000000    -5.718000000    -2.913000000
H     3.608000000    -7.139000000    -3.432000000
O    -4.405000000    -3.947000000    -6.735000000
H    -3.485000000    -3.951000000    -6.471000000
H    -4.763000000    -4.756000000    -6.368000000
O    -1.922000000    -4.331000000    -9.184000000
H    -2.077000000    -4.386000000    -8.241000000
H    -2.789000000    -4.440000000    -9.576000000
O     3.067000000    -3.470000000    -8.253000000
H     2.966000000    -3.931000000    -7.420000000
H     2.182000000    -3.432000000    -8.614000000
O     6.243000000    -5.287000000    -4.772000000
H     5.778000000    -5.212000000    -3.938000000
H     5.739000000    -5.929000000    -5.271000000
O    -1.694000000    -4.358000000    -6.310000000
H    -1.739000000    -5.300000000    -6.148000000
H    -0.886000000    -4.079000000    -5.880000000
O     2.591000000    -4.790000000    -5.941000000
H     2.084000000    -5.397000000    -6.481000000
H     2.035000000    -4.627000000    -5.179000000
O     2.890000000    -8.990000000    -3.637000000
H     2.830000000    -9.877000000    -3.282000000
H     2.737000000    -9.096000000    -4.576000000
O     3.928000000    -5.964000000    -8.879000000
H     3.961000000    -5.061000000    -8.564000000
H     3.038000000    -6.254000000    -8.681000000
O     5.784000000    -7.515000000    -1.156000000
H     5.896000000    -8.290000000    -1.706000000
H     5.221000000    -6.936000000    -1.670000000
O     1.038000000    -9.029000000     0.552000000
H     1.189000000    -8.455000000    -0.199000000
H     1.202000000    -8.473000000     1.314000000
O     1.257000000    -7.041000000    -1.426000000
H     1.179000000    -6.219000000    -1.909000000
H     1.913000000    -7.542000000    -1.911000000
O    -2.392000000    -5.380000000    -3.534000000
H    -1.591000000    -4.934000000    -3.811000000
H    -2.154000000    -5.807000000    -2.711000000
O    -1.524000000    -6.822000000    -1.293000000
H    -0.754000000    -6.546000000    -0.797000000
H    -1.218000000    -7.563000000    -1.817000000
