218
-1460.34758
C     0.049000000    -2.963000000     4.407000000
H     0.160000000    -3.885000000     3.841000000
C    -1.066000000    -2.189000000     4.087000000
C    -1.371000000    -1.091000000     4.942000000
H    -2.197000000    -0.422000000     4.716000000
C    -1.874000000    -2.524000000     2.859000000
O    -1.792000000    -3.985000000     2.514000000
H    -1.406000000    -1.836000000     2.140000000
O    -3.221000000    -2.070000000     3.121000000
C    -3.826000000    -1.361000000     2.095000000
C    -3.893000000     0.043000000     2.219000000
H    -3.738000000     0.533000000     3.177000000
C    -4.330000000     0.745000000     1.051000000
O    -4.164000000     2.062000000     1.152000000
C    -4.849000000     0.088000000    -0.048000000
C    -5.379000000     0.936000000    -1.207000000
H    -6.052000000     0.322000000    -1.809000000
C    -4.243000000     1.427000000    -2.160000000
C    -3.911000000     0.630000000    -3.282000000
H    -4.354000000    -0.344000000    -3.473000000
H    -5.935000000     1.808000000    -0.857000000
C    -4.783000000    -1.310000000    -0.151000000
H    -5.017000000    -1.860000000    -1.059000000
C    -4.256000000    -2.039000000     0.934000000
C    -4.151000000    -3.619000000     0.887000000
H    -4.855000000    -3.982000000     0.135000000
H    -4.314000000    -4.122000000     1.843000000
C    -2.778000000    -4.011000000     0.325000000
C    -2.620000000    -4.127000000    -1.069000000
H    -3.418000000    -3.857000000    -1.756000000
C    -1.786000000    -4.315000000     1.193000000
C    -0.609000000    -4.705000000     0.676000000
H     0.205000000    -4.881000000     1.374000000
C    -0.372000000    -4.757000000    -0.704000000
O     0.983000000    -4.814000000    -1.084000000
C     1.698000000    -3.683000000    -1.688000000
C     3.072000000    -3.478000000    -1.142000000
C     4.121000000    -2.890000000    -1.869000000
H     3.913000000    -2.529000000    -2.873000000
C     3.311000000    -3.902000000     0.170000000
H     2.551000000    -4.380000000     0.783000000
O     1.579000000    -3.639000000    -3.122000000
H     1.122000000    -2.797000000    -1.382000000
C    -1.411000000    -4.419000000    -1.614000000
C    -1.260000000    -4.508000000    -3.050000000
H    -2.209000000    -4.836000000    -3.479000000
H    -0.513000000    -5.222000000    -3.404000000
C    -0.788000000    -3.191000000    -3.611000000
C    -1.715000000    -2.289000000    -4.162000000
H    -2.731000000    -2.663000000    -4.266000000
C     0.546000000    -2.802000000    -3.610000000
C     0.971000000    -1.586000000    -4.109000000
H     2.024000000    -1.324000000    -4.050000000
C     0.040000000    -0.699000000    -4.563000000
O     0.537000000     0.544000000    -4.830000000
C     0.286000000     1.738000000    -4.026000000
C     1.545000000     2.605000000    -3.943000000
C     2.780000000     2.003000000    -3.865000000
H     2.901000000     0.923000000    -3.897000000
C     1.417000000     3.935000000    -3.766000000
H     0.426000000     4.384000000    -3.773000000
O    -0.928000000     2.434000000    -4.560000000
H     0.106000000     1.378000000    -3.002000000
C    -1.320000000    -1.038000000    -4.651000000
C    -2.332000000    -0.079000000    -5.214000000
H    -3.221000000    -0.552000000    -5.635000000
H    -1.906000000     0.507000000    -6.031000000
C    -2.835000000     0.942000000    -4.177000000
C    -2.158000000     2.153000000    -3.929000000
C    -2.568000000     3.030000000    -2.925000000
H    -1.952000000     3.871000000    -2.618000000
C    -3.604000000     2.660000000    -2.006000000
O    -3.733000000     3.382000000    -0.843000000
C    -3.170000000     2.853000000     0.369000000
H    -2.486000000     2.087000000    -0.024000000
C    -2.366000000     3.868000000     1.233000000
C    -2.659000000     3.856000000     2.615000000
H    -3.502000000     3.297000000     3.014000000
C    -1.285000000     4.639000000     0.761000000
H    -1.003000000     4.608000000    -0.289000000
C    -0.517000000     5.366000000     1.710000000
O     0.506000000     6.167000000     1.184000000
C    -0.864000000     5.346000000     3.080000000
H    -0.262000000     5.966000000     3.739000000
C    -1.852000000     4.543000000     3.581000000
O    -2.099000000     4.499000000     4.916000000
C    -2.378000000     3.310000000     5.618000000
C    -1.431000000     2.293000000     5.686000000
H    -0.545000000     2.332000000     5.057000000
C    -3.557000000     3.234000000     6.378000000
H    -4.243000000     4.076000000     6.412000000
C    -3.805000000     2.131000000     7.175000000
H    -4.604000000     2.125000000     7.911000000
C    -2.810000000     1.162000000     7.409000000
H    -2.992000000     0.368000000     8.129000000
C    -1.639000000     1.272000000     6.674000000
O    -0.637000000     0.296000000     6.807000000
C    -0.487000000    -0.809000000     5.963000000
C     0.594000000    -1.612000000     6.311000000
H     1.135000000    -1.279000000     7.193000000
C     0.903000000    -2.724000000     5.534000000
O     2.078000000    -3.404000000     5.731000000
C     2.740000000    -4.311000000     4.901000000
C     3.431000000    -3.753000000     3.796000000
H     3.532000000    -2.673000000     3.728000000
C     2.599000000    -5.696000000     4.957000000
H     2.135000000    -6.235000000     5.779000000
C     3.197000000    -6.519000000     3.990000000
H     3.216000000    -7.604000000     4.047000000
C     4.032000000    -5.983000000     2.991000000
H     4.606000000    -6.540000000     2.255000000
C     4.142000000    -4.591000000     2.920000000
O     4.900000000    -4.020000000     2.013000000
C     4.562000000    -3.757000000     0.715000000
C     5.578000000    -3.169000000    -0.012000000
H     6.504000000    -2.890000000     0.486000000
C     5.387000000    -2.750000000    -1.319000000
O     6.391000000    -2.140000000    -1.968000000
C     6.239000000    -1.117000000    -2.850000000
C     5.784000000     0.108000000    -2.479000000
H     5.625000000     0.259000000    -1.414000000
C     6.418000000    -1.448000000    -4.220000000
H     6.811000000    -2.419000000    -4.512000000
C     6.178000000    -0.479000000    -5.204000000
H     6.381000000    -0.758000000    -6.235000000
C     5.808000000     0.770000000    -4.832000000
H     5.736000000     1.584000000    -5.548000000
C     5.453000000     0.997000000    -3.460000000
O     5.052000000     2.329000000    -3.113000000
C     3.888000000     2.866000000    -3.599000000
C     3.721000000     4.245000000    -3.418000000
H     4.554000000     4.892000000    -3.157000000
C     2.463000000     4.791000000    -3.521000000
O     2.334000000     6.146000000    -3.309000000
C     1.443000000     6.608000000    -2.307000000
C     0.562000000     7.588000000    -2.661000000
H     0.677000000     7.931000000    -3.686000000
C    -0.366000000     8.061000000    -1.761000000
H    -1.068000000     8.813000000    -2.114000000
C    -0.343000000     7.586000000    -0.467000000
H    -1.054000000     7.904000000     0.292000000
C     0.576000000     6.624000000    -0.073000000
C     1.470000000     6.138000000    -0.985000000
H     2.068000000     5.248000000    -0.807000000
C     1.281000000     1.781000000    -0.051000000
H     1.293000000     2.820000000    -0.370000000
C     0.173000000     1.105000000    -0.468000000
H    -0.557000000     1.576000000    -1.121000000
C     0.026000000    -0.279000000    -0.265000000
C    -1.247000000    -0.902000000    -0.731000000
H    -1.374000000    -1.790000000    -0.108000000
H    -2.127000000    -0.304000000    -0.486000000
H    -1.274000000    -1.112000000    -1.802000000
C     1.053000000    -0.930000000     0.522000000
H     0.995000000    -2.009000000     0.644000000
C     2.246000000    -0.231000000     0.846000000
H     3.112000000    -0.768000000     1.226000000
C     2.350000000     1.145000000     0.602000000
C     3.626000000     1.858000000     0.724000000
O     4.544000000     1.256000000     1.209000000
O     3.747000000     3.067000000     0.503000000
O     4.911000000     7.194000000    -1.403000000
H     5.798000000     7.323000000    -1.739000000
H     5.037000000     6.902000000    -0.500000000
O     2.502000000     6.734000000     3.928000000
H     2.756000000     6.150000000     3.213000000
H     1.963000000     7.405000000     3.509000000
O     8.159000000     4.788000000    -2.165000000
H     8.169000000     5.730000000    -1.993000000
H     7.309000000     4.494000000    -1.838000000
O     9.988000000     2.880000000    -0.375000000
H     9.425000000     2.756000000     0.390000000
H     9.421000000     3.294000000    -1.025000000
O     4.415000000     3.970000000     4.075000000
H     4.142000000     3.715000000     3.194000000
H     3.728000000     3.627000000     4.647000000
O     6.856000000     4.122000000     3.013000000
H     7.419000000     4.390000000     3.739000000
H     5.966000000     4.264000000     3.335000000
O     7.119000000     0.019000000     0.954000000
H     6.183000000     0.210000000     0.902000000
H     7.538000000     0.880000000     0.979000000
O     3.409000000     5.432000000     1.603000000
H     2.667000000     5.812000000     1.133000000
H     3.538000000     4.576000000     1.195000000
O     4.693000000     7.017000000     5.171000000
H     4.849000000     6.122000000     5.473000000
H     3.844000000     6.976000000     4.730000000
O     9.159000000    -2.036000000    -0.378000000
H     9.333000000    -1.897000000    -1.309000000
H     8.529000000    -1.354000000    -0.148000000
O     6.073000000     3.736000000    -0.668000000
H     5.778000000     3.637000000    -1.573000000
H     5.277000000     3.639000000    -0.145000000
O     7.898000000     0.298000000     5.082000000
H     7.369000000     1.025000000     4.750000000
H     7.855000000    -0.363000000     4.391000000
O     7.877000000     2.643000000     0.987000000
H     7.174000000     2.892000000     0.387000000
H     7.693000000     3.133000000     1.788000000
O     8.403000000     5.873000000     0.740000000
H     7.467000000     5.976000000     0.913000000
H     8.661000000     5.115000000     1.265000000
O     8.145000000    -1.851000000     2.324000000
H     7.872000000    -1.214000000     1.664000000
H     7.942000000    -2.701000000     1.935000000
O     4.121000000     0.096000000     5.478000000
H     4.969000000     0.213000000     5.050000000
H     3.520000000    -0.121000000     4.765000000
O     5.848000000     6.588000000     1.163000000
H     6.085000000     7.147000000     1.903000000
H     5.018000000     6.188000000     1.421000000
O     5.906000000     1.243000000     3.507000000
H     6.230000000     2.133000000     3.370000000
H     5.532000000     0.992000000     2.662000000
O     4.597000000     2.232000000     7.305000000
H     4.098000000     2.163000000     8.119000000
H     4.344000000     1.459000000     6.802000000
