218
-1455.45142
C    -0.103000000    -2.261000000     4.404000000
H     0.215000000    -3.005000000     3.678000000
C    -1.301000000    -1.553000000     4.210000000
C    -1.500000000    -0.437000000     4.995000000
H    -2.370000000     0.196000000     4.842000000
C    -2.278000000    -1.851000000     3.064000000
O    -2.564000000    -3.257000000     2.946000000
H    -1.590000000    -1.514000000     2.275000000
O    -3.443000000    -1.067000000     3.165000000
C    -3.877000000    -0.412000000     2.010000000
C    -3.885000000     1.003000000     2.004000000
H    -3.593000000     1.475000000     2.939000000
C    -4.314000000     1.649000000     0.826000000
O    -3.979000000     2.967000000     0.817000000
C    -4.882000000     0.958000000    -0.233000000
C    -5.304000000     1.585000000    -1.623000000
H    -6.006000000     0.892000000    -2.091000000
C    -4.051000000     1.730000000    -2.475000000
C    -3.797000000     0.712000000    -3.412000000
H    -4.467000000    -0.129000000    -3.568000000
H    -5.834000000     2.503000000    -1.358000000
C    -4.843000000    -0.436000000    -0.153000000
H    -5.267000000    -0.918000000    -1.030000000
C    -4.378000000    -1.115000000     0.948000000
C    -4.644000000    -2.622000000     1.011000000
H    -5.465000000    -2.802000000     0.313000000
H    -5.008000000    -2.786000000     2.028000000
C    -3.462000000    -3.497000000     0.713000000
C    -3.120000000    -3.874000000    -0.606000000
H    -3.882000000    -3.541000000    -1.307000000
C    -2.530000000    -3.786000000     1.678000000
C    -1.342000000    -4.440000000     1.337000000
H    -0.621000000    -4.542000000     2.144000000
C    -1.017000000    -4.684000000     0.051000000
O     0.235000000    -5.145000000    -0.266000000
C     1.101000000    -4.117000000    -0.829000000
C     2.606000000    -4.321000000    -0.315000000
C     3.656000000    -3.988000000    -1.125000000
H     3.489000000    -3.554000000    -2.108000000
C     2.917000000    -4.814000000     0.952000000
H     2.129000000    -5.078000000     1.652000000
O     0.989000000    -4.298000000    -2.288000000
H     0.744000000    -3.157000000    -0.428000000
C    -1.946000000    -4.516000000    -0.974000000
C    -1.752000000    -4.771000000    -2.418000000
H    -2.705000000    -4.887000000    -2.938000000
H    -1.118000000    -5.643000000    -2.594000000
C    -1.037000000    -3.646000000    -3.159000000
C    -1.812000000    -2.673000000    -3.850000000
H    -2.891000000    -2.811000000    -3.844000000
C     0.340000000    -3.426000000    -3.032000000
C     0.910000000    -2.335000000    -3.568000000
H     1.954000000    -2.084000000    -3.397000000
C     0.154000000    -1.391000000    -4.222000000
O     0.782000000    -0.249000000    -4.697000000
C     0.544000000     0.984000000    -3.921000000
C     1.818000000     1.724000000    -3.714000000
C     2.889000000     0.992000000    -3.162000000
H     2.662000000    -0.024000000    -2.850000000
C     1.987000000     3.093000000    -3.953000000
H     1.189000000     3.627000000    -4.462000000
O    -0.451000000     1.844000000    -4.549000000
H     0.111000000     0.648000000    -2.967000000
C    -1.243000000    -1.569000000    -4.432000000
C    -2.268000000    -0.502000000    -4.946000000
H    -3.202000000    -0.955000000    -5.287000000
H    -1.798000000    -0.049000000    -5.822000000
C    -2.606000000     0.736000000    -4.106000000
C    -1.733000000     1.834000000    -4.021000000
C    -2.011000000     2.899000000    -3.218000000
H    -1.338000000     3.753000000    -3.209000000
C    -3.173000000     2.801000000    -2.389000000
O    -3.440000000     3.730000000    -1.376000000
C    -2.936000000     3.384000000    -0.045000000
H    -2.221000000     2.582000000    -0.281000000
C    -2.027000000     4.433000000     0.618000000
C    -1.827000000     4.401000000     1.990000000
H    -2.304000000     3.653000000     2.618000000
C    -1.214000000     5.271000000    -0.103000000
H    -1.286000000     5.398000000    -1.180000000
C    -0.321000000     6.156000000     0.514000000
O     0.272000000     7.206000000    -0.234000000
C    -0.260000000     6.208000000     1.867000000
H     0.340000000     7.010000000     2.289000000
C    -0.970000000     5.243000000     2.649000000
O    -0.668000000     5.156000000     4.008000000
C    -1.340000000     4.338000000     4.883000000
C    -0.685000000     3.170000000     5.332000000
H     0.268000000     2.898000000     4.885000000
C    -2.685000000     4.622000000     5.134000000
H    -3.148000000     5.537000000     4.773000000
C    -3.314000000     3.772000000     6.021000000
H    -4.364000000     4.010000000     6.168000000
C    -2.707000000     2.624000000     6.547000000
H    -3.310000000     1.972000000     7.173000000
C    -1.368000000     2.303000000     6.254000000
O    -0.779000000     1.166000000     6.735000000
C    -0.592000000    -0.064000000     6.012000000
C     0.503000000    -0.865000000     6.225000000
H     1.078000000    -0.609000000     7.112000000
C     0.867000000    -1.845000000     5.321000000
O     2.118000000    -2.398000000     5.356000000
C     2.464000000    -3.710000000     5.121000000
C     3.405000000    -4.012000000     4.124000000
H     3.980000000    -3.182000000     3.721000000
C     1.626000000    -4.743000000     5.585000000
H     0.898000000    -4.545000000     6.367000000
C     1.952000000    -6.095000000     5.248000000
H     1.324000000    -6.918000000     5.578000000
C     2.878000000    -6.379000000     4.170000000
H     3.057000000    -7.376000000     3.777000000
C     3.630000000    -5.303000000     3.668000000
O     4.465000000    -5.620000000     2.600000000
C     4.244000000    -5.026000000     1.363000000
C     5.265000000    -4.616000000     0.547000000
H     6.294000000    -4.674000000     0.896000000
C     4.973000000    -3.992000000    -0.678000000
O     6.086000000    -3.606000000    -1.433000000
C     6.049000000    -2.478000000    -2.277000000
C     5.594000000    -1.254000000    -1.821000000
H     5.159000000    -1.146000000    -0.831000000
C     6.703000000    -2.544000000    -3.517000000
H     7.143000000    -3.487000000    -3.830000000
C     6.638000000    -1.549000000    -4.448000000
H     7.078000000    -1.648000000    -5.437000000
C     6.073000000    -0.346000000    -4.047000000
H     6.098000000     0.444000000    -4.793000000
C     5.589000000    -0.181000000    -2.715000000
O     5.117000000     1.019000000    -2.269000000
C     4.065000000     1.652000000    -2.855000000
C     4.114000000     3.055000000    -2.940000000
H     4.985000000     3.619000000    -2.616000000
C     3.082000000     3.751000000    -3.476000000
O     3.164000000     5.110000000    -3.549000000
C     2.055000000     5.836000000    -3.197000000
C     1.343000000     6.554000000    -4.172000000
H     1.626000000     6.392000000    -5.209000000
C     0.394000000     7.537000000    -3.897000000
H     0.054000000     8.153000000    -4.726000000
C     0.018000000     7.733000000    -2.609000000
H    -0.742000000     8.444000000    -2.297000000
C     0.678000000     7.005000000    -1.572000000
C     1.723000000     6.054000000    -1.822000000
H     2.299000000     5.554000000    -1.047000000
C     1.719000000     1.388000000     0.119000000
H     1.941000000     2.375000000    -0.279000000
C     0.568000000     0.812000000    -0.280000000
H     0.043000000     1.478000000    -0.961000000
C     0.179000000    -0.391000000     0.198000000
C    -1.095000000    -0.961000000    -0.390000000
H    -1.176000000    -2.046000000    -0.297000000
H    -1.967000000    -0.555000000     0.128000000
H    -1.189000000    -0.673000000    -1.439000000
C     1.021000000    -1.138000000     1.008000000
H     0.651000000    -2.105000000     1.338000000
C     2.214000000    -0.592000000     1.468000000
H     2.811000000    -1.299000000     2.038000000
C     2.601000000     0.688000000     1.033000000
C     3.774000000     1.420000000     1.633000000
O     4.346000000     0.800000000     2.519000000
O     4.052000000     2.588000000     1.459000000
O     7.721000000     2.502000000    -2.625000000
H     7.024000000     2.836000000    -3.190000000
H     7.267000000     1.952000000    -1.985000000
O     2.107000000     4.183000000     1.997000000
H     1.470000000     3.500000000     2.209000000
H     2.926000000     3.709000000     1.850000000
O     4.046000000    -0.002000000     7.268000000
H     4.394000000    -0.741000000     7.767000000
H     4.366000000    -0.143000000     6.377000000
O     3.075000000     7.226000000     1.089000000
H     3.807000000     6.627000000     0.940000000
H     2.297000000     6.712000000     0.871000000
O     7.250000000    -1.896000000     4.398000000
H     7.604000000    -1.970000000     3.512000000
H     6.332000000    -1.655000000     4.270000000
O     4.680000000     2.931000000     4.451000000
H     4.394000000     2.310000000     3.781000000
H     4.500000000     3.792000000     4.073000000
O     9.671000000     0.565000000     3.619000000
H    10.560000000     0.469000000     3.277000000
H     9.270000000     1.232000000     3.062000000
O     2.431000000     2.110000000     7.667000000
H     2.952000000     1.375000000     7.343000000
H     2.617000000     2.823000000     7.057000000
O     7.439000000     5.628000000     0.560000000
H     6.977000000     4.947000000     1.050000000
H     8.364000000     5.394000000     0.639000000
O     6.565000000     3.100000000     1.298000000
H     6.951000000     2.259000000     1.544000000
H     5.622000000     2.967000000     1.388000000
O     6.651000000     1.910000000     6.264000000
H     6.104000000     2.187000000     5.529000000
H     6.037000000     1.801000000     6.991000000
O     5.671000000     7.285000000     3.155000000
H     4.808000000     6.884000000     3.253000000
H     6.245000000     6.756000000     3.709000000
O     8.935000000    -0.219000000     0.505000000
H     9.618000000     0.448000000     0.583000000
H     8.193000000     0.141000000     0.990000000
O     4.461000000     4.808000000    -0.135000000
H     4.163000000     4.118000000     0.459000000
H     5.383000000     4.606000000    -0.293000000
O     6.961000000     0.555000000     2.351000000
H     6.017000000     0.636000000     2.489000000
H     7.284000000     0.134000000     3.147000000
O     8.524000000    -2.545000000     2.074000000
H     8.412000000    -3.276000000     1.466000000
H     8.968000000    -1.872000000     1.558000000
O     5.148000000     3.615000000     8.193000000
H     5.800000000     4.100000000     8.700000000
H     5.327000000     3.853000000     7.283000000
O     4.548000000    -0.664000000     4.558000000
H     4.334000000     0.011000000     3.915000000
H     3.710000000    -1.082000000     4.755000000
O     3.161000000     5.854000000     3.917000000
H     2.790000000     5.431000000     3.142000000
H     2.535000000     6.544000000     4.136000000
