218
-1460.52479
C    -5.092000000     1.303000000    -1.939000000
H    -4.855000000     2.102000000    -2.637000000
C    -4.584000000     1.228000000    -0.640000000
C    -4.985000000     0.118000000     0.140000000
H    -4.530000000    -0.020000000     1.117000000
C    -3.673000000     2.278000000     0.010000000
O    -3.523000000     3.485000000    -0.851000000
H    -2.704000000     1.777000000     0.150000000
O    -4.089000000     2.611000000     1.341000000
C    -3.146000000     2.840000000     2.256000000
C    -3.030000000     1.871000000     3.164000000
H    -3.802000000     1.106000000     3.175000000
C    -1.911000000     1.827000000     4.029000000
O    -1.738000000     0.601000000     4.740000000
C    -0.899000000     2.871000000     3.967000000
C     0.387000000     2.957000000     4.765000000
H     0.682000000     3.998000000     4.916000000
C     1.503000000     2.137000000     4.223000000
C     2.518000000     2.756000000     3.441000000
H     2.590000000     3.837000000     3.347000000
H     0.191000000     2.585000000     5.773000000
C    -1.149000000     3.924000000     3.096000000
H    -0.476000000     4.777000000     3.109000000
C    -2.167000000     3.842000000     2.221000000
C    -2.250000000     4.966000000     1.104000000
H    -1.924000000     5.919000000     1.528000000
H    -3.291000000     5.124000000     0.816000000
C    -1.621000000     4.636000000    -0.136000000
C    -0.286000000     4.986000000    -0.357000000
H     0.255000000     5.607000000     0.353000000
C    -2.331000000     3.940000000    -1.105000000
C    -1.713000000     3.495000000    -2.257000000
H    -2.304000000     2.785000000    -2.830000000
C    -0.391000000     3.894000000    -2.496000000
O     0.315000000     3.336000000    -3.580000000
C     1.163000000     2.212000000    -3.424000000
C     0.961000000     1.085000000    -4.431000000
C     1.962000000     0.266000000    -4.813000000
H     2.975000000     0.386000000    -4.438000000
C    -0.372000000     0.890000000    -4.870000000
H    -1.170000000     1.581000000    -4.611000000
O     2.500000000     2.658000000    -3.395000000
H     0.871000000     1.821000000    -2.438000000
C     0.354000000     4.571000000    -1.522000000
C     1.815000000     4.985000000    -1.708000000
H     1.978000000     5.900000000    -1.134000000
H     2.133000000     5.220000000    -2.726000000
C     2.746000000     3.819000000    -1.258000000
C     3.411000000     3.852000000    -0.046000000
H     3.130000000     4.625000000     0.664000000
C     3.056000000     2.767000000    -2.147000000
C     3.966000000     1.763000000    -1.733000000
H     4.350000000     1.016000000    -2.423000000
C     4.418000000     1.728000000    -0.392000000
O     5.002000000     0.599000000     0.053000000
C     4.086000000    -0.285000000     0.729000000
C     4.348000000    -1.674000000     0.180000000
C     4.905000000    -2.002000000    -1.044000000
H     5.369000000    -1.225000000    -1.647000000
C     3.820000000    -2.760000000     0.940000000
H     3.346000000    -2.557000000     1.897000000
O     4.297000000    -0.219000000     2.114000000
H     3.061000000    -0.001000000     0.447000000
C     4.185000000     2.851000000     0.427000000
C     4.547000000     2.831000000     1.922000000
H     4.612000000     3.864000000     2.271000000
H     5.545000000     2.392000000     1.994000000
C     3.513000000     2.057000000     2.791000000
C     3.465000000     0.652000000     2.855000000
C     2.517000000     0.034000000     3.664000000
H     2.532000000    -1.043000000     3.813000000
C     1.521000000     0.725000000     4.297000000
O     0.543000000     0.013000000     4.938000000
C    -0.657000000    -0.284000000     4.360000000
H    -0.432000000    -0.231000000     3.285000000
C    -1.012000000    -1.708000000     4.551000000
C    -2.341000000    -2.045000000     4.367000000
H    -2.975000000    -1.250000000     3.981000000
C    -0.099000000    -2.723000000     4.766000000
H     0.941000000    -2.416000000     4.842000000
C    -0.511000000    -4.046000000     4.758000000
O     0.386000000    -5.069000000     4.980000000
C    -1.827000000    -4.402000000     4.605000000
H    -2.164000000    -5.426000000     4.741000000
C    -2.789000000    -3.377000000     4.467000000
O    -4.106000000    -3.771000000     4.262000000
C    -5.077000000    -3.086000000     3.644000000
C    -5.025000000    -2.730000000     2.287000000
H    -4.092000000    -2.904000000     1.757000000
C    -6.311000000    -2.859000000     4.293000000
H    -6.457000000    -3.091000000     5.345000000
C    -7.349000000    -2.255000000     3.658000000
H    -8.266000000    -2.098000000     4.219000000
C    -7.251000000    -1.891000000     2.329000000
H    -8.113000000    -1.481000000     1.809000000
C    -6.130000000    -2.260000000     1.625000000
O    -5.992000000    -2.031000000     0.248000000
C    -5.815000000    -0.840000000    -0.472000000
C    -6.254000000    -0.840000000    -1.755000000
H    -6.860000000    -1.629000000    -2.193000000
C    -5.884000000     0.222000000    -2.493000000
O    -6.182000000     0.224000000    -3.805000000
C    -5.213000000     0.580000000    -4.723000000
C    -4.071000000    -0.227000000    -4.907000000
H    -3.883000000    -1.135000000    -4.339000000
C    -5.348000000     1.689000000    -5.481000000
H    -6.198000000     2.363000000    -5.400000000
C    -4.350000000     2.054000000    -6.430000000
H    -4.340000000     2.976000000    -7.006000000
C    -3.142000000     1.285000000    -6.492000000
H    -2.281000000     1.717000000    -6.997000000
C    -3.042000000     0.128000000    -5.734000000
O    -1.906000000    -0.680000000    -5.778000000
C    -0.623000000    -0.279000000    -5.562000000
C     0.423000000    -1.198000000    -5.861000000
H     0.221000000    -2.083000000    -6.459000000
C     1.712000000    -0.870000000    -5.569000000
O     2.608000000    -1.762000000    -5.859000000
C     3.891000000    -1.855000000    -5.391000000
C     4.115000000    -2.374000000    -4.131000000
H     3.284000000    -2.529000000    -3.447000000
C     4.951000000    -1.806000000    -6.304000000
H     4.694000000    -1.491000000    -7.312000000
C     6.273000000    -2.174000000    -5.978000000
H     7.052000000    -2.009000000    -6.719000000
C     6.447000000    -2.786000000    -4.690000000
H     7.374000000    -3.285000000    -4.419000000
C     5.368000000    -2.905000000    -3.834000000
O     5.511000000    -3.610000000    -2.696000000
C     4.844000000    -3.288000000    -1.525000000
C     4.275000000    -4.318000000    -0.796000000
H     4.251000000    -5.342000000    -1.162000000
C     3.775000000    -4.107000000     0.521000000
O     3.435000000    -5.209000000     1.295000000
C     3.170000000    -5.151000000     2.598000000
C     4.226000000    -5.044000000     3.495000000
H     5.246000000    -5.017000000     3.120000000
C     3.979000000    -4.884000000     4.824000000
H     4.775000000    -4.947000000     5.562000000
C     2.696000000    -4.876000000     5.317000000
H     2.465000000    -4.784000000     6.375000000
C     1.648000000    -4.970000000     4.435000000
C     1.818000000    -5.084000000     3.022000000
H     1.048000000    -5.337000000     2.298000000
C     0.803000000    -3.044000000    -0.989000000
H     1.396000000    -3.896000000    -0.665000000
C     0.423000000    -2.052000000    -0.092000000
H     0.773000000    -1.957000000     0.933000000
C    -0.359000000    -0.984000000    -0.549000000
C    -0.483000000     0.207000000     0.349000000
H    -0.943000000    -0.062000000     1.302000000
H     0.524000000     0.529000000     0.623000000
H    -1.052000000     1.020000000    -0.106000000
C    -0.985000000    -0.989000000    -1.771000000
H    -1.743000000    -0.279000000    -2.091000000
C    -0.674000000    -2.071000000    -2.630000000
H    -1.156000000    -2.074000000    -3.604000000
C     0.205000000    -3.098000000    -2.292000000
C     0.474000000    -4.308000000    -3.133000000
O    -0.334000000    -4.587000000    -4.011000000
O     1.393000000    -5.064000000    -2.772000000
O     0.825000000    -7.810000000    -3.707000000
H     0.776000000    -6.888000000    -3.455000000
H     0.174000000    -8.244000000    -3.156000000
O     0.043000000    -6.342000000    -5.909000000
H     0.563000000    -7.049000000    -5.526000000
H    -0.287000000    -5.852000000    -5.156000000
O    -2.911000000    -7.763000000    -7.203000000
H    -3.748000000    -7.497000000    -7.583000000
H    -2.404000000    -6.953000000    -7.149000000
O    -4.443000000    -7.602000000    -3.697000000
H    -4.075000000    -6.719000000    -3.709000000
H    -4.083000000    -8.022000000    -4.479000000
O     1.042000000    -3.147000000    -9.317000000
H     0.896000000    -4.093000000    -9.337000000
H     0.416000000    -2.822000000    -8.670000000
O    -4.921000000    -3.767000000    -2.954000000
H    -4.808000000    -3.486000000    -3.863000000
H    -4.069000000    -4.126000000    -2.707000000
O     4.710000000    -5.980000000    -3.770000000
H     4.837000000    -5.077000000    -3.478000000
H     3.817000000    -5.996000000    -4.116000000
O    -4.378000000    -3.508000000    -5.589000000
H    -4.656000000    -2.971000000    -6.331000000
H    -4.856000000    -4.330000000    -5.696000000
O    -2.120000000    -4.844000000    -8.822000000
H    -2.110000000    -4.618000000    -7.892000000
H    -2.971000000    -4.536000000    -9.134000000
O    -1.650000000    -3.738000000    -6.292000000
H    -2.459000000    -3.373000000    -5.934000000
H    -1.183000000    -4.079000000    -5.529000000
O     4.609000000    -4.780000000    -7.744000000
H     4.507000000    -4.631000000    -6.804000000
H     4.217000000    -5.641000000    -7.894000000
O     2.749000000    -5.034000000    -5.281000000
H     2.029000000    -5.098000000    -5.908000000
H     2.360000000    -4.619000000    -4.511000000
O     3.007000000    -8.529000000    -5.298000000
H     2.573000000    -9.165000000    -5.867000000
H     2.303000000    -8.169000000    -4.759000000
O    -1.619000000    -6.480000000    -0.890000000
H    -0.683000000    -6.677000000    -0.844000000
H    -1.912000000    -6.493000000     0.021000000
O     5.784000000    -7.922000000    -2.441000000
H     5.176000000    -8.589000000    -2.762000000
H     5.394000000    -7.091000000    -2.715000000
O     0.105000000    -8.946000000     0.217000000
H     0.496000000    -8.080000000     0.103000000
H    -0.191000000    -9.193000000    -0.659000000
O     1.475000000    -6.468000000    -0.257000000
H     1.351000000    -6.019000000    -1.093000000
H     2.294000000    -6.113000000     0.087000000
O    -2.701000000    -5.484000000    -3.057000000
H    -1.978000000    -5.019000000    -3.477000000
H    -2.311000000    -5.882000000    -2.279000000
O     0.907000000    -5.622000000    -8.716000000
H     0.410000000    -6.128000000    -9.358000000
H     0.534000000    -5.874000000    -7.871000000
