218
-1460.39643
C    -0.335000000    -3.113000000     4.424000000
H    -0.388000000    -4.121000000     4.021000000
C    -1.266000000    -2.166000000     4.091000000
C    -1.380000000    -0.979000000     4.848000000
H    -2.253000000    -0.354000000     4.676000000
C    -2.303000000    -2.471000000     2.948000000
O    -2.359000000    -3.932000000     2.587000000
H    -1.818000000    -2.008000000     2.076000000
O    -3.619000000    -1.871000000     3.028000000
C    -4.100000000    -1.191000000     1.955000000
C    -3.960000000     0.157000000     1.998000000
H    -3.566000000     0.631000000     2.894000000
C    -4.294000000     0.934000000     0.866000000
O    -4.076000000     2.259000000     0.930000000
C    -4.761000000     0.264000000    -0.261000000
C    -5.142000000     1.016000000    -1.512000000
H    -5.822000000     0.341000000    -2.035000000
C    -3.901000000     1.340000000    -2.307000000
C    -3.484000000     0.462000000    -3.320000000
H    -4.072000000    -0.443000000    -3.445000000
H    -5.699000000     1.893000000    -1.175000000
C    -4.794000000    -1.136000000    -0.364000000
H    -5.133000000    -1.674000000    -1.246000000
C    -4.416000000    -1.839000000     0.742000000
C    -4.384000000    -3.340000000     0.762000000
H    -5.080000000    -3.649000000    -0.020000000
H    -4.850000000    -3.746000000     1.662000000
C    -3.074000000    -3.962000000     0.347000000
C    -2.717000000    -4.069000000    -1.030000000
H    -3.394000000    -3.663000000    -1.777000000
C    -2.138000000    -4.292000000     1.353000000
C    -0.805000000    -4.670000000     0.978000000
H    -0.021000000    -4.699000000     1.730000000
C    -0.448000000    -4.733000000    -0.360000000
O     0.792000000    -4.973000000    -0.698000000
C     1.549000000    -3.790000000    -1.244000000
C     3.021000000    -3.556000000    -0.763000000
C     4.037000000    -2.981000000    -1.469000000
H     3.913000000    -2.809000000    -2.535000000
C     3.247000000    -3.851000000     0.586000000
H     2.489000000    -4.396000000     1.142000000
O     1.655000000    -3.837000000    -2.660000000
H     1.073000000    -2.886000000    -0.836000000
C    -1.405000000    -4.467000000    -1.332000000
C    -1.114000000    -4.619000000    -2.836000000
H    -2.020000000    -5.006000000    -3.307000000
H    -0.352000000    -5.401000000    -2.864000000
C    -0.533000000    -3.394000000    -3.478000000
C    -1.371000000    -2.514000000    -4.057000000
H    -2.410000000    -2.797000000    -4.205000000
C     0.826000000    -3.066000000    -3.361000000
C     1.374000000    -1.841000000    -3.883000000
H     2.428000000    -1.584000000    -3.822000000
C     0.435000000    -0.918000000    -4.431000000
O     0.925000000     0.302000000    -4.815000000
C     0.631000000     1.438000000    -3.995000000
C     1.795000000     2.402000000    -3.696000000
C     3.039000000     1.965000000    -3.371000000
H     3.139000000     0.884000000    -3.325000000
C     1.539000000     3.717000000    -3.546000000
H     0.590000000     4.156000000    -3.845000000
O    -0.457000000     2.114000000    -4.562000000
H     0.227000000     1.013000000    -3.064000000
C    -0.908000000    -1.260000000    -4.550000000
C    -1.930000000    -0.300000000    -5.127000000
H    -2.829000000    -0.865000000    -5.382000000
H    -1.542000000     0.160000000    -6.038000000
C    -2.383000000     0.700000000    -4.101000000
C    -1.704000000     1.924000000    -3.923000000
C    -2.107000000     2.766000000    -2.906000000
H    -1.543000000     3.675000000    -2.712000000
C    -3.237000000     2.539000000    -2.109000000
O    -3.337000000     3.292000000    -0.973000000
C    -2.911000000     2.792000000     0.288000000
H    -2.198000000     1.960000000     0.187000000
C    -2.239000000     3.885000000     1.142000000
C    -2.351000000     3.862000000     2.492000000
H    -2.895000000     3.067000000     2.995000000
C    -1.689000000     5.008000000     0.532000000
H    -1.710000000     5.053000000    -0.554000000
C    -1.085000000     5.981000000     1.204000000
O    -0.411000000     7.039000000     0.622000000
C    -1.066000000     5.911000000     2.622000000
H    -0.471000000     6.606000000     3.209000000
C    -1.698000000     4.819000000     3.278000000
O    -1.750000000     4.804000000     4.727000000
C    -2.063000000     3.676000000     5.432000000
C    -1.026000000     2.747000000     5.622000000
H    -0.012000000     2.834000000     5.240000000
C    -3.398000000     3.407000000     5.820000000
H    -4.196000000     4.084000000     5.526000000
C    -3.631000000     2.251000000     6.530000000
H    -4.602000000     1.993000000     6.946000000
C    -2.642000000     1.319000000     6.745000000
H    -2.880000000     0.372000000     7.223000000
C    -1.355000000     1.542000000     6.253000000
O    -0.403000000     0.565000000     6.466000000
C    -0.400000000    -0.659000000     5.756000000
C     0.564000000    -1.607000000     6.096000000
H     1.279000000    -1.415000000     6.892000000
C     0.517000000    -2.797000000     5.461000000
O     1.426000000    -3.697000000     5.941000000
C     2.164000000    -4.472000000     5.097000000
C     3.054000000    -3.938000000     4.128000000
H     3.237000000    -2.869000000     4.063000000
C     2.046000000    -5.845000000     5.193000000
H     1.407000000    -6.360000000     5.905000000
C     2.600000000    -6.634000000     4.214000000
H     2.451000000    -7.710000000     4.174000000
C     3.496000000    -6.118000000     3.274000000
H     4.057000000    -6.741000000     2.583000000
C     3.722000000    -4.741000000     3.292000000
O     4.689000000    -4.222000000     2.482000000
C     4.524000000    -3.846000000     1.160000000
C     5.527000000    -3.147000000     0.467000000
H     6.513000000    -3.058000000     0.914000000
C     5.242000000    -2.681000000    -0.836000000
O     6.322000000    -2.180000000    -1.556000000
C     6.310000000    -1.182000000    -2.476000000
C     5.821000000     0.092000000    -2.221000000
H     5.423000000     0.302000000    -1.232000000
C     6.811000000    -1.369000000    -3.776000000
H     7.085000000    -2.388000000    -4.038000000
C     6.982000000    -0.315000000    -4.708000000
H     7.365000000    -0.513000000    -5.706000000
C     6.533000000     0.997000000    -4.322000000
H     6.566000000     1.814000000    -5.038000000
C     5.967000000     1.205000000    -3.092000000
O     5.398000000     2.405000000    -2.866000000
C     4.102000000     2.860000000    -3.139000000
C     3.849000000     4.224000000    -3.076000000
H     4.635000000     4.911000000    -2.774000000
C     2.552000000     4.672000000    -3.221000000
O     2.312000000     6.010000000    -3.200000000
C     1.200000000     6.595000000    -2.608000000
C     0.210000000     7.067000000    -3.510000000
H     0.320000000     6.842000000    -4.568000000
C    -0.841000000     7.775000000    -2.972000000
H    -1.619000000     8.244000000    -3.570000000
C    -1.059000000     7.716000000    -1.571000000
H    -1.974000000     8.140000000    -1.166000000
C    -0.188000000     7.164000000    -0.665000000
C     1.003000000     6.618000000    -1.191000000
H     1.747000000     6.177000000    -0.532000000
C     1.950000000     1.883000000     0.231000000
H     2.165000000     2.865000000    -0.181000000
C     0.741000000     1.279000000    -0.222000000
H     0.139000000     1.873000000    -0.904000000
C     0.334000000     0.007000000     0.182000000
C    -0.905000000    -0.572000000    -0.256000000
H    -0.856000000    -1.618000000    -0.565000000
H    -1.704000000    -0.338000000     0.450000000
H    -1.175000000    -0.005000000    -1.150000000
C     1.138000000    -0.655000000     1.127000000
H     0.973000000    -1.594000000     1.650000000
C     2.335000000    -0.066000000     1.579000000
H     2.912000000    -0.406000000     2.435000000
C     2.784000000     1.152000000     1.101000000
C     3.991000000     1.783000000     1.704000000
O     4.501000000     1.229000000     2.660000000
O     4.392000000     2.859000000     1.317000000
O     4.505000000     4.919000000     3.204000000
H     3.722000000     5.442000000     3.036000000
H     4.557000000     4.319000000     2.460000000
O     0.918000000     5.589000000     5.815000000
H     0.471000000     5.413000000     6.643000000
H     0.328000000     5.243000000     5.146000000
O     4.865000000    -0.267000000     7.143000000
H     5.533000000     0.413000000     7.232000000
H     4.194000000    -0.029000000     7.782000000
O     7.579000000    -2.413000000     3.768000000
H     6.762000000    -1.939000000     3.921000000
H     7.332000000    -3.337000000     3.813000000
O     6.536000000     2.716000000     3.442000000
H     5.735000000     2.250000000     3.205000000
H     6.239000000     3.590000000     3.694000000
O     6.496000000     2.051000000     7.676000000
H     7.387000000     1.749000000     7.501000000
H     6.407000000     2.849000000     7.154000000
O     9.238000000     2.947000000     1.714000000
H     9.096000000     2.206000000     2.303000000
H     8.472000000     3.506000000     1.844000000
O     6.319000000     5.861000000    -0.836000000
H     6.640000000     4.960000000    -0.805000000
H     6.411000000     6.179000000     0.062000000
O     6.488000000     3.101000000    -0.260000000
H     5.917000000     3.044000000     0.506000000
H     7.271000000     2.609000000    -0.013000000
O     8.820000000     1.103000000     3.756000000
H     8.151000000     1.764000000     3.934000000
H     8.852000000     0.573000000     4.552000000
O     5.966000000     6.911000000     2.442000000
H     5.419000000     6.157000000     2.662000000
H     5.424000000     7.671000000     2.651000000
O     3.761000000     5.004000000     0.030000000
H     4.020000000     4.157000000     0.392000000
H     4.536000000     5.312000000    -0.439000000
O     6.581000000    -0.119000000     1.542000000
H     5.986000000     0.589000000     1.787000000
H     7.114000000    -0.265000000     2.324000000
O     2.410000000     2.603000000     7.057000000
H     2.909000000     2.567000000     6.241000000
H     2.482000000     3.514000000     7.342000000
O     8.974000000    -1.109000000     0.268000000
H     8.071000000    -1.144000000     0.586000000
H     8.917000000    -1.389000000    -0.645000000
O     3.824000000     2.869000000     4.783000000
H     3.878000000     3.783000000     4.505000000
H     3.873000000     2.368000000     3.968000000
O     2.564000000     6.697000000     2.381000000
H     1.988000000     7.462000000     2.381000000
H     2.596000000     6.421000000     1.465000000
O     5.319000000    -0.742000000     4.408000000
H     4.918000000     0.025000000     3.999000000
H     4.955000000    -0.758000000     5.293000000
O     5.976000000     4.641000000     6.503000000
H     5.285000000     4.407000000     5.882000000
H     5.811000000     5.562000000     6.708000000
