218
-1487.81058
C    -0.116000000    -3.589000000     3.795000000
H     0.276000000    -4.147000000     2.949000000
C    -1.357000000    -2.942000000     3.709000000
C    -1.840000000    -2.266000000     4.864000000
H    -2.826000000    -1.808000000     4.872000000
C    -2.111000000    -2.844000000     2.374000000
O    -2.009000000    -4.129000000     1.661000000
H    -1.476000000    -2.086000000     1.891000000
O    -3.420000000    -2.391000000     2.684000000
C    -3.962000000    -1.536000000     1.754000000
C    -4.037000000    -0.218000000     2.165000000
H    -3.662000000     0.091000000     3.137000000
C    -4.454000000     0.786000000     1.304000000
O    -4.303000000     2.066000000     1.750000000
C    -4.975000000     0.454000000     0.045000000
C    -5.311000000     1.515000000    -0.973000000
H    -5.964000000     1.156000000    -1.771000000
C    -4.068000000     2.067000000    -1.615000000
C    -3.633000000     1.426000000    -2.857000000
H    -4.246000000     0.637000000    -3.284000000
H    -5.797000000     2.369000000    -0.496000000
C    -4.907000000    -0.856000000    -0.385000000
H    -5.189000000    -1.059000000    -1.415000000
C    -4.375000000    -1.853000000     0.454000000
C    -4.439000000    -3.279000000    -0.026000000
H    -5.231000000    -3.519000000    -0.739000000
H    -4.708000000    -3.892000000     0.837000000
C    -3.114000000    -3.691000000    -0.552000000
C    -2.861000000    -3.672000000    -1.932000000
H    -3.621000000    -3.364000000    -2.645000000
C    -2.053000000    -4.169000000     0.288000000
C    -0.817000000    -4.510000000    -0.290000000
H     0.041000000    -4.717000000     0.344000000
C    -0.597000000    -4.290000000    -1.623000000
O     0.674000000    -4.500000000    -2.088000000
C     1.405000000    -3.228000000    -2.370000000
C     2.807000000    -3.159000000    -1.758000000
C     3.860000000    -2.833000000    -2.582000000
H     3.689000000    -2.774000000    -3.653000000
C     2.948000000    -3.373000000    -0.388000000
H     2.099000000    -3.649000000     0.232000000
O     1.406000000    -3.056000000    -3.822000000
H     0.773000000    -2.471000000    -1.882000000
C    -1.622000000    -3.944000000    -2.435000000
C    -1.433000000    -3.715000000    -3.920000000
H    -2.360000000    -3.758000000    -4.496000000
H    -0.671000000    -4.437000000    -4.224000000
C    -0.893000000    -2.316000000    -4.193000000
C    -1.724000000    -1.221000000    -4.413000000
H    -2.784000000    -1.444000000    -4.321000000
C     0.472000000    -2.119000000    -4.183000000
C     0.997000000    -0.825000000    -4.449000000
H     2.058000000    -0.613000000    -4.352000000
C     0.094000000     0.218000000    -4.647000000
O     0.656000000     1.472000000    -4.663000000
C     0.569000000     2.285000000    -3.426000000
C     1.887000000     3.059000000    -3.224000000
C     3.159000000     2.507000000    -3.544000000
H     3.206000000     1.489000000    -3.924000000
C     1.957000000     4.228000000    -2.468000000
H     1.009000000     4.669000000    -2.170000000
O    -0.609000000     3.156000000    -3.544000000
H     0.391000000     1.663000000    -2.537000000
C    -1.288000000     0.067000000    -4.711000000
C    -2.297000000     1.234000000    -4.917000000
H    -3.203000000     0.857000000    -5.395000000
H    -2.008000000     1.969000000    -5.672000000
C    -2.588000000     1.873000000    -3.592000000
C    -1.814000000     2.856000000    -2.945000000
C    -2.155000000     3.467000000    -1.704000000
H    -1.548000000     4.315000000    -1.398000000
C    -3.276000000     3.074000000    -1.042000000
O    -3.465000000     3.554000000     0.193000000
C    -3.154000000     2.817000000     1.351000000
H    -2.466000000     2.061000000     0.945000000
C    -2.257000000     3.455000000     2.361000000
C    -2.234000000     2.952000000     3.619000000
H    -2.928000000     2.140000000     3.819000000
C    -1.379000000     4.439000000     1.930000000
H    -1.411000000     4.827000000     0.915000000
C    -0.386000000     4.895000000     2.779000000
O     0.545000000     5.799000000     2.403000000
C    -0.442000000     4.532000000     4.097000000
H     0.221000000     5.020000000     4.807000000
C    -1.337000000     3.517000000     4.537000000
O    -1.118000000     2.984000000     5.860000000
C    -1.848000000     1.885000000     6.294000000
C    -1.317000000     0.611000000     6.378000000
H    -0.341000000     0.433000000     5.934000000
C    -3.120000000     2.061000000     6.752000000
H    -3.675000000     2.985000000     6.610000000
C    -3.880000000     1.019000000     7.309000000
H    -4.863000000     1.134000000     7.760000000
C    -3.301000000    -0.195000000     7.560000000
H    -3.857000000    -0.975000000     8.074000000
C    -2.032000000    -0.413000000     7.018000000
O    -1.454000000    -1.647000000     7.111000000
C    -1.048000000    -2.312000000     6.012000000
C     0.110000000    -3.062000000     6.156000000
H     0.649000000    -3.191000000     7.091000000
C     0.578000000    -3.749000000     5.008000000
O     1.686000000    -4.547000000     5.114000000
C     2.391000000    -4.929000000     4.007000000
C     3.069000000    -3.986000000     3.255000000
H     2.980000000    -2.956000000     3.590000000
C     2.530000000    -6.247000000     3.676000000
H     1.971000000    -7.055000000     4.140000000
C     3.349000000    -6.613000000     2.611000000
H     3.436000000    -7.633000000     2.245000000
C     3.942000000    -5.609000000     1.849000000
H     4.565000000    -5.892000000     1.005000000
C     3.927000000    -4.310000000     2.168000000
O     4.553000000    -3.384000000     1.433000000
C     4.278000000    -3.216000000     0.091000000
C     5.364000000    -2.840000000    -0.739000000
H     6.376000000    -2.778000000    -0.345000000
C     5.088000000    -2.525000000    -2.063000000
O     6.160000000    -2.202000000    -2.849000000
C     6.125000000    -1.123000000    -3.709000000
C     5.847000000     0.147000000    -3.138000000
H     5.738000000     0.260000000    -2.063000000
C     6.186000000    -1.260000000    -5.099000000
H     6.355000000    -2.264000000    -5.478000000
C     6.015000000    -0.106000000    -5.898000000
H     6.004000000    -0.234000000    -6.977000000
C     5.881000000     1.136000000    -5.266000000
H     5.898000000     2.035000000    -5.878000000
C     5.820000000     1.279000000    -3.903000000
O     5.638000000     2.589000000    -3.446000000
C     4.391000000     3.120000000    -3.271000000
C     4.372000000     4.354000000    -2.634000000
H     5.285000000     4.913000000    -2.445000000
C     3.139000000     4.906000000    -2.257000000
O     3.180000000     6.095000000    -1.559000000
C     2.061000000     6.630000000    -0.894000000
C     1.113000000     7.508000000    -1.360000000
H     1.164000000     8.020000000    -2.318000000
C    -0.110000000     7.747000000    -0.671000000
H    -0.856000000     8.393000000    -1.126000000
C    -0.268000000     7.198000000     0.619000000
H    -1.146000000     7.393000000     1.231000000
C     0.740000000     6.376000000     1.141000000
C     1.833000000     5.987000000     0.376000000
H     2.505000000     5.225000000     0.762000000
C     0.539000000     0.764000000     2.251000000
H     0.305000000     0.863000000     3.308000000
C    -0.430000000     0.447000000     1.291000000
H    -1.417000000     0.364000000     1.738000000
C    -0.078000000     0.301000000    -0.002000000
C    -1.097000000    -0.221000000    -0.942000000
H    -1.857000000    -0.806000000    -0.421000000
H    -1.623000000     0.646000000    -1.346000000
H    -0.762000000    -0.849000000    -1.771000000
C     1.247000000     0.561000000    -0.372000000
H     1.506000000     0.414000000    -1.418000000
C     2.143000000     1.031000000     0.533000000
H     3.165000000     1.129000000     0.175000000
C     1.778000000     1.263000000     1.881000000
C     2.784000000     1.761000000     2.933000000
O     3.941000000     2.071000000     2.542000000
O     2.477000000     1.817000000     4.126000000
O     7.466000000     1.627000000     1.251000000
H     6.769000000     0.973000000     1.207000000
H     7.130000000     2.371000000     0.752000000
O     2.335000000     3.007000000     8.948000000
H     3.178000000     3.142000000     9.382000000
H     2.426000000     3.452000000     8.105000000
O     3.954000000    -2.647000000     6.947000000
H     4.329000000    -3.521000000     7.059000000
H     3.091000000    -2.703000000     7.357000000
O     5.050000000     3.355000000     6.653000000
H     5.269000000     2.711000000     5.980000000
H     4.326000000     2.959000000     7.138000000
O     7.677000000     4.965000000     0.166000000
H     7.236000000     5.783000000    -0.064000000
H     7.563000000     4.889000000     1.113000000
O     7.423000000     0.611000000     6.569000000
H     7.115000000     0.553000000     5.664000000
H     6.638000000     0.470000000     7.098000000
O     3.121000000     0.240000000     6.207000000
H     3.281000000    -0.576000000     5.732000000
H     2.932000000     0.882000000     5.523000000
O     5.363000000    -1.196000000     4.707000000
H     6.062000000    -1.837000000     4.575000000
H     4.918000000    -1.488000000     5.503000000
O     5.062000000     2.951000000     0.339000000
H     4.660000000     2.511000000     1.088000000
H     4.584000000     3.777000000     0.262000000
O     6.522000000     5.609000000     7.490000000
H     5.987000000     4.862000000     7.223000000
H     7.282000000     5.579000000     6.909000000
O     6.800000000     4.691000000     2.921000000
H     7.019000000     5.507000000     3.370000000
H     5.888000000     4.522000000     3.160000000
O     1.279000000     0.121000000     8.401000000
H     1.820000000     0.375000000     7.654000000
H     1.259000000     0.899000000     8.958000000
O     5.339000000    -0.246000000     1.889000000
H     4.960000000     0.536000000     2.290000000
H     5.213000000    -0.935000000     2.543000000
O     8.732000000     2.721000000     3.519000000
H     8.498000000     1.945000000     3.009000000
H     8.211000000     3.426000000     3.134000000
O     4.218000000     4.505000000     4.164000000
H     3.642000000     3.848000000     3.772000000
H     4.493000000     4.117000000     4.994000000
O     2.238000000     3.720000000     6.219000000
H     2.183000000     4.562000000     5.768000000
H     1.914000000     3.085000000     5.581000000
O     5.802000000     1.757000000     4.398000000
H     5.678000000     0.811000000     4.324000000
H     5.245000000     2.126000000     3.712000000
O     3.183000000     7.296000000     4.975000000
H     3.299000000     7.119000000     5.909000000
H     3.297000000     6.444000000     4.554000000
O     5.274000000    -0.488000000     7.992000000
H     5.266000000    -1.310000000     7.501000000
H     4.380000000    -0.155000000     7.914000000
