218
-1467.31128
C    -0.676000000    -3.601000000     3.340000000
H    -0.414000000    -4.211000000     2.479000000
C    -1.953000000    -3.016000000     3.332000000
C    -2.418000000    -2.395000000     4.478000000
H    -3.443000000    -2.060000000     4.614000000
C    -2.651000000    -2.812000000     2.024000000
O    -2.646000000    -4.041000000     1.172000000
H    -2.084000000    -2.068000000     1.446000000
O    -3.999000000    -2.353000000     2.082000000
C    -4.329000000    -1.405000000     1.173000000
C    -4.292000000    -0.050000000     1.579000000
H    -4.050000000     0.223000000     2.603000000
C    -4.465000000     0.992000000     0.697000000
O    -4.127000000     2.234000000     1.122000000
C    -4.821000000     0.712000000    -0.611000000
C    -5.010000000     1.918000000    -1.625000000
H    -5.718000000     1.568000000    -2.379000000
C    -3.747000000     2.466000000    -2.244000000
C    -3.270000000     1.886000000    -3.411000000
H    -3.623000000     1.035000000    -3.988000000
H    -5.556000000     2.679000000    -1.064000000
C    -4.869000000    -0.557000000    -1.102000000
H    -5.010000000    -0.796000000    -2.153000000
C    -4.667000000    -1.668000000    -0.216000000
C    -4.608000000    -3.157000000    -0.711000000
H    -5.359000000    -3.356000000    -1.478000000
H    -4.897000000    -3.794000000     0.128000000
C    -3.183000000    -3.549000000    -1.137000000
C    -2.767000000    -3.414000000    -2.407000000
H    -3.457000000    -3.064000000    -3.170000000
C    -2.249000000    -3.989000000    -0.170000000
C    -0.938000000    -4.249000000    -0.500000000
H    -0.235000000    -4.655000000     0.222000000
C    -0.550000000    -4.042000000    -1.850000000
O     0.760000000    -4.326000000    -2.196000000
C     1.678000000    -3.203000000    -2.239000000
C     2.941000000    -3.693000000    -1.735000000
C     4.137000000    -3.128000000    -2.256000000
H     4.067000000    -2.424000000    -3.081000000
C     3.095000000    -4.576000000    -0.636000000
H     2.162000000    -4.876000000    -0.165000000
O     1.791000000    -2.779000000    -3.613000000
H     1.266000000    -2.431000000    -1.573000000
C    -1.463000000    -3.629000000    -2.802000000
C    -1.000000000    -3.454000000    -4.242000000
H    -1.858000000    -3.331000000    -4.905000000
H    -0.335000000    -4.211000000    -4.664000000
C    -0.376000000    -2.099000000    -4.380000000
C    -1.145000000    -1.005000000    -4.906000000
H    -2.192000000    -1.194000000    -5.127000000
C     0.992000000    -1.835000000    -4.080000000
C     1.515000000    -0.551000000    -4.132000000
H     2.576000000    -0.395000000    -3.952000000
C     0.772000000     0.508000000    -4.513000000
O     1.358000000     1.753000000    -4.446000000
C     0.964000000     2.540000000    -3.315000000
C     2.173000000     3.138000000    -2.588000000
C     3.301000000     2.340000000    -2.369000000
H     3.356000000     1.324000000    -2.750000000
C     2.075000000     4.346000000    -1.981000000
H     1.221000000     4.952000000    -2.270000000
O    -0.029000000     3.516000000    -3.765000000
H     0.356000000     1.913000000    -2.646000000
C    -0.562000000     0.282000000    -4.879000000
C    -1.488000000     1.486000000    -5.178000000
H    -2.289000000     1.067000000    -5.791000000
H    -1.040000000     2.271000000    -5.791000000
C    -2.013000000     2.212000000    -3.935000000
C    -1.274000000     3.182000000    -3.328000000
C    -1.728000000     3.799000000    -2.074000000
H    -1.082000000     4.493000000    -1.542000000
C    -2.948000000     3.398000000    -1.572000000
O    -3.161000000     3.770000000    -0.310000000
C    -2.859000000     2.835000000     0.743000000
H    -2.221000000     2.053000000     0.305000000
C    -2.226000000     3.514000000     1.922000000
C    -1.879000000     2.808000000     3.104000000
H    -2.218000000     1.789000000     3.272000000
C    -1.932000000     4.903000000     1.854000000
H    -2.099000000     5.569000000     1.012000000
C    -1.122000000     5.499000000     2.865000000
O    -0.515000000     6.704000000     2.554000000
C    -0.690000000     4.743000000     3.938000000
H     0.043000000     5.072000000     4.670000000
C    -1.156000000     3.458000000     4.094000000
O    -0.719000000     2.651000000     5.173000000
C    -1.586000000     1.812000000     5.902000000
C    -1.268000000     0.460000000     6.072000000
H    -0.292000000     0.104000000     5.755000000
C    -2.741000000     2.346000000     6.456000000
H    -3.045000000     3.384000000     6.355000000
C    -3.524000000     1.497000000     7.230000000
H    -4.403000000     1.902000000     7.724000000
C    -3.337000000     0.142000000     7.245000000
H    -4.057000000    -0.504000000     7.740000000
C    -2.233000000    -0.371000000     6.644000000
O    -2.037000000    -1.696000000     6.722000000
C    -1.628000000    -2.403000000     5.625000000
C    -0.369000000    -2.903000000     5.609000000
H     0.312000000    -2.878000000     6.456000000
C     0.128000000    -3.503000000     4.461000000
O     1.362000000    -4.114000000     4.472000000
C     1.740000000    -5.156000000     3.667000000
C     2.886000000    -4.968000000     2.874000000
H     3.454000000    -4.041000000     2.909000000
C     1.207000000    -6.468000000     3.719000000
H     0.435000000    -6.581000000     4.475000000
C     1.675000000    -7.451000000     2.855000000
H     1.232000000    -8.427000000     3.037000000
C     2.746000000    -7.189000000     1.976000000
H     3.188000000    -7.991000000     1.391000000
C     3.331000000    -5.939000000     1.972000000
O     4.423000000    -5.553000000     1.209000000
C     4.327000000    -4.912000000    -0.038000000
C     5.499000000    -4.278000000    -0.538000000
H     6.464000000    -4.429000000    -0.060000000
C     5.416000000    -3.439000000    -1.675000000
O     6.579000000    -2.718000000    -2.052000000
C     6.478000000    -1.446000000    -2.491000000
C     6.000000000    -0.486000000    -1.680000000
H     5.801000000    -0.782000000    -0.653000000
C     6.787000000    -1.147000000    -3.861000000
H     7.136000000    -1.881000000    -4.582000000
C     6.575000000     0.131000000    -4.294000000
H     6.856000000     0.416000000    -5.305000000
C     5.949000000     1.146000000    -3.454000000
H     5.793000000     2.126000000    -3.895000000
C     5.719000000     0.864000000    -2.134000000
O     5.350000000     1.894000000    -1.259000000
C     4.353000000     2.821000000    -1.553000000
C     4.232000000     4.046000000    -0.885000000
H     4.910000000     4.425000000    -0.124000000
C     3.085000000     4.809000000    -1.124000000
O     2.971000000     6.099000000    -0.585000000
C     1.758000000     6.684000000    -0.277000000
C     1.208000000     7.608000000    -1.128000000
H     1.717000000     7.912000000    -2.039000000
C     0.082000000     8.314000000    -0.712000000
H    -0.277000000     9.128000000    -1.337000000
C    -0.510000000     8.053000000     0.510000000
H    -1.412000000     8.541000000     0.870000000
C     0.018000000     7.071000000     1.356000000
C     1.091000000     6.242000000     0.890000000
H     1.597000000     5.503000000     1.505000000
C     0.894000000    -0.353000000     2.371000000
H     0.830000000    -0.258000000     3.452000000
C    -0.164000000    -0.217000000     1.460000000
H    -1.133000000    -0.016000000     1.910000000
C     0.084000000    -0.152000000     0.105000000
C    -1.052000000     0.137000000    -0.925000000
H    -1.006000000    -0.499000000    -1.812000000
H    -1.974000000    -0.140000000    -0.408000000
H    -1.072000000     1.179000000    -1.249000000
C     1.424000000    -0.234000000    -0.364000000
H     1.495000000    -0.095000000    -1.439000000
C     2.534000000    -0.445000000     0.514000000
H     3.541000000    -0.563000000     0.121000000
C     2.215000000    -0.514000000     1.872000000
C     3.293000000    -0.742000000     2.868000000
O     4.390000000    -1.014000000     2.530000000
O     3.120000000    -0.412000000     4.024000000
O     9.183000000    -0.034000000     1.873000000
H     9.550000000    -0.364000000     2.693000000
H     8.267000000     0.152000000     2.078000000
O     2.281000000     3.856000000     6.805000000
H     2.384000000     4.766000000     6.527000000
H     2.227000000     3.361000000     5.988000000
O     3.928000000    -6.592000000     5.744000000
H     4.712000000    -6.572000000     5.196000000
H     3.201000000    -6.600000000     5.122000000
O     3.919000000    -3.756000000     5.789000000
H     3.975000000    -4.592000000     6.252000000
H     3.080000000    -3.792000000     5.329000000
O     7.268000000    -5.213000000     3.498000000
H     7.107000000    -5.854000000     2.806000000
H     7.025000000    -4.373000000     3.108000000
O     5.020000000     3.853000000     3.502000000
H     5.139000000     4.077000000     4.425000000
H     4.381000000     3.141000000     3.508000000
O     5.039000000     3.011000000     6.293000000
H     4.181000000     3.126000000     6.702000000
H     5.118000000     2.065000000     6.165000000
O     2.564000000    -1.242000000     6.561000000
H     3.214000000    -1.939000000     6.476000000
H     2.615000000    -0.764000000     5.733000000
O     8.114000000     1.948000000     6.366000000
H     7.859000000     2.083000000     5.454000000
H     7.488000000     1.304000000     6.697000000
O     6.357000000    -2.111000000     5.658000000
H     7.170000000    -2.565000000     5.435000000
H     5.679000000    -2.781000000     5.577000000
O     6.306000000     0.542000000     1.760000000
H     5.701000000    -0.168000000     1.974000000
H     6.287000000     0.593000000     0.804000000
O     4.801000000    -1.226000000     8.361000000
H     4.033000000    -1.545000000     7.888000000
H     4.746000000    -0.273000000     8.293000000
O     5.919000000    -3.027000000     2.772000000
H     5.539000000    -2.148000000     2.772000000
H     5.197000000    -3.599000000     2.512000000
O     1.055000000    -2.108000000     9.043000000
H     1.563000000    -1.356000000     8.738000000
H     0.192000000    -1.748000000     9.248000000
O     7.513000000     2.381000000     3.631000000
H     7.090000000     1.689000000     3.122000000
H     6.919000000     3.128000000     3.558000000
O     2.519000000     2.422000000     4.462000000
H     1.829000000     2.209000000     3.833000000
H     2.998000000     1.602000000     4.579000000
O     8.230000000    -2.590000000     1.182000000
H     8.055000000    -1.654000000     1.085000000
H     7.587000000    -2.888000000     1.826000000
O     5.145000000     0.578000000     5.433000000
H     5.647000000    -0.223000000     5.588000000
H     4.464000000     0.317000000     4.812000000
O     7.690000000    -0.702000000     7.877000000
H     8.464000000    -0.884000000     7.344000000
H     6.962000000    -1.073000000     7.377000000
