218
-1445.88664
C    -0.262000000    -3.564000000     3.100000000
H     0.009000000    -4.130000000     2.213000000
C    -1.398000000    -2.832000000     3.123000000
C    -1.783000000    -2.087000000     4.254000000
H    -2.757000000    -1.610000000     4.328000000
C    -2.307000000    -2.855000000     1.930000000
O    -2.310000000    -4.135000000     1.237000000
H    -1.857000000    -2.134000000     1.231000000
O    -3.639000000    -2.544000000     2.295000000
C    -4.263000000    -1.562000000     1.545000000
C    -4.214000000    -0.294000000     2.093000000
H    -3.924000000    -0.161000000     3.132000000
C    -4.513000000     0.809000000     1.311000000
O    -4.226000000     2.021000000     1.865000000
C    -4.888000000     0.640000000    -0.033000000
C    -5.211000000     1.824000000    -0.875000000
H    -5.962000000     1.546000000    -1.617000000
C    -3.941000000     2.323000000    -1.579000000
C    -3.567000000     1.874000000    -2.852000000
H    -4.092000000     1.035000000    -3.301000000
H    -5.724000000     2.652000000    -0.382000000
C    -4.865000000    -0.643000000    -0.603000000
H    -4.966000000    -0.840000000    -1.667000000
C    -4.585000000    -1.738000000     0.188000000
C    -4.588000000    -3.153000000    -0.369000000
H    -5.153000000    -3.196000000    -1.302000000
H    -5.061000000    -3.886000000     0.288000000
C    -3.165000000    -3.531000000    -0.936000000
C    -2.912000000    -3.269000000    -2.280000000
H    -3.719000000    -2.772000000    -2.814000000
C    -2.160000000    -4.050000000    -0.110000000
C    -0.946000000    -4.378000000    -0.642000000
H    -0.170000000    -4.763000000     0.014000000
C    -0.711000000    -4.141000000    -1.993000000
O     0.587000000    -4.241000000    -2.489000000
C     1.510000000    -3.085000000    -2.749000000
C     2.924000000    -3.300000000    -2.184000000
C     3.989000000    -2.618000000    -2.675000000
H     3.806000000    -1.922000000    -3.490000000
C     3.130000000    -4.010000000    -1.042000000
H     2.200000000    -4.407000000    -0.644000000
O     1.490000000    -2.737000000    -4.104000000
H     1.104000000    -2.242000000    -2.171000000
C    -1.688000000    -3.629000000    -2.826000000
C    -1.390000000    -3.288000000    -4.257000000
H    -2.302000000    -3.390000000    -4.849000000
H    -0.743000000    -4.032000000    -4.727000000
C    -0.757000000    -1.901000000    -4.438000000
C    -1.515000000    -0.751000000    -4.519000000
H    -2.585000000    -0.875000000    -4.371000000
C     0.653000000    -1.710000000    -4.417000000
C     1.178000000    -0.419000000    -4.486000000
H     2.247000000    -0.234000000    -4.411000000
C     0.362000000     0.664000000    -4.803000000
O     0.870000000     1.935000000    -4.656000000
C     0.810000000     2.401000000    -3.320000000
C     2.121000000     3.031000000    -2.835000000
C     3.344000000     2.457000000    -3.224000000
H     3.395000000     1.651000000    -3.952000000
C     2.170000000     4.049000000    -1.902000000
H     1.221000000     4.384000000    -1.493000000
O    -0.272000000     3.379000000    -3.288000000
H     0.558000000     1.516000000    -2.717000000
C    -1.025000000     0.542000000    -4.756000000
C    -1.962000000     1.749000000    -4.862000000
H    -2.910000000     1.523000000    -5.356000000
H    -1.501000000     2.477000000    -5.532000000
C    -2.435000000     2.294000000    -3.468000000
C    -1.553000000     3.080000000    -2.730000000
C    -1.950000000     3.680000000    -1.475000000
H    -1.226000000     4.324000000    -0.983000000
C    -3.160000000     3.285000000    -0.891000000
O    -3.420000000     3.739000000     0.391000000
C    -3.072000000     2.782000000     1.350000000
H    -2.298000000     2.124000000     0.928000000
C    -2.465000000     3.524000000     2.619000000
C    -2.852000000     3.166000000     3.963000000
H    -3.611000000     2.398000000     4.089000000
C    -1.430000000     4.434000000     2.467000000
H    -1.012000000     4.639000000     1.484000000
C    -0.777000000     4.937000000     3.540000000
O     0.347000000     5.680000000     3.344000000
C    -1.112000000     4.588000000     4.824000000
H    -0.484000000     4.933000000     5.642000000
C    -2.163000000     3.688000000     5.061000000
O    -2.324000000     3.262000000     6.294000000
C    -2.618000000     1.977000000     6.692000000
C    -1.787000000     0.922000000     6.410000000
H    -0.789000000     1.039000000     5.995000000
C    -3.829000000     1.771000000     7.400000000
H    -4.511000000     2.538000000     7.758000000
C    -4.273000000     0.446000000     7.630000000
H    -5.230000000     0.274000000     8.118000000
C    -3.382000000    -0.638000000     7.323000000
H    -3.757000000    -1.605000000     7.650000000
C    -2.119000000    -0.365000000     6.752000000
O    -1.224000000    -1.426000000     6.535000000
C    -0.858000000    -2.014000000     5.333000000
C     0.307000000    -2.724000000     5.265000000
H     0.971000000    -2.550000000     6.108000000
C     0.670000000    -3.471000000     4.191000000
O     1.944000000    -3.925000000     4.013000000
C     2.304000000    -4.935000000     3.132000000
C     3.162000000    -4.597000000     2.117000000
H     3.655000000    -3.629000000     2.106000000
C     1.842000000    -6.197000000     3.270000000
H     1.172000000    -6.411000000     4.099000000
C     2.206000000    -7.126000000     2.312000000
H     1.762000000    -8.118000000     2.320000000
C     3.159000000    -6.861000000     1.351000000
H     3.510000000    -7.629000000     0.667000000
C     3.672000000    -5.542000000     1.299000000
O     4.617000000    -5.251000000     0.429000000
C     4.387000000    -4.289000000    -0.524000000
C     5.499000000    -3.700000000    -1.133000000
H     6.542000000    -3.879000000    -0.886000000
C     5.300000000    -2.839000000    -2.178000000
O     6.360000000    -2.165000000    -2.718000000
C     6.325000000    -1.068000000    -3.508000000
C     5.991000000     0.171000000    -2.955000000
H     5.633000000     0.271000000    -1.934000000
C     6.768000000    -1.201000000    -4.836000000
H     6.982000000    -2.186000000    -5.242000000
C     6.762000000    -0.036000000    -5.647000000
H     6.979000000     0.014000000    -6.711000000
C     6.438000000     1.172000000    -5.045000000
H     6.378000000     2.025000000    -5.715000000
C     6.048000000     1.252000000    -3.774000000
O     5.772000000     2.479000000    -3.152000000
C     4.545000000     2.960000000    -2.682000000
C     4.539000000     4.109000000    -1.891000000
H     5.542000000     4.439000000    -1.633000000
C     3.369000000     4.586000000    -1.366000000
O     3.379000000     5.644000000    -0.429000000
C     2.226000000     6.087000000     0.219000000
C     1.471000000     7.112000000    -0.356000000
H     1.861000000     7.573000000    -1.260000000
C     0.347000000     7.619000000     0.321000000
H    -0.229000000     8.431000000    -0.114000000
C    -0.091000000     7.122000000     1.536000000
H    -0.967000000     7.537000000     2.027000000
C     0.721000000     6.143000000     2.114000000
C     1.913000000     5.721000000     1.544000000
H     2.491000000     4.932000000     2.018000000
C     1.124000000     0.025000000     3.246000000
H     0.937000000     0.355000000     4.264000000
C     0.165000000     0.416000000     2.246000000
H    -0.794000000     0.889000000     2.440000000
C     0.440000000    -0.056000000     0.910000000
C    -0.575000000     0.295000000    -0.152000000
H    -0.401000000     1.313000000    -0.507000000
H    -0.252000000    -0.285000000    -1.019000000
H    -1.642000000     0.157000000     0.035000000
C     1.606000000    -0.723000000     0.614000000
H     1.796000000    -0.959000000    -0.429000000
C     2.534000000    -1.048000000     1.609000000
H     3.440000000    -1.582000000     1.332000000
C     2.290000000    -0.683000000     2.920000000
C     3.278000000    -1.164000000     4.015000000
O     4.382000000    -1.418000000     3.643000000
O     3.038000000    -0.868000000     5.157000000
O     9.373000000    -1.649000000     3.641000000
H     9.453000000    -1.088000000     4.413000000
H     8.430000000    -1.749000000     3.514000000
O     2.694000000    -0.963000000     8.093000000
H     2.792000000    -0.417000000     7.312000000
H     3.061000000    -1.810000000     7.840000000
O     7.372000000    -5.138000000     4.437000000
H     7.058000000    -4.266000000     4.677000000
H     6.912000000    -5.730000000     5.031000000
O     3.829000000    -3.112000000     6.376000000
H     3.099000000    -3.731000000     6.408000000
H     3.511000000    -2.394000000     5.829000000
O     2.069000000    -4.885000000     7.732000000
H     2.926000000    -5.052000000     8.125000000
H     1.705000000    -5.756000000     7.574000000
O     2.801000000     1.957000000     9.277000000
H     3.535000000     1.470000000     8.903000000
H     3.197000000     2.755000000     9.628000000
O     3.556000000     2.553000000     5.820000000
H     4.422000000     2.158000000     5.917000000
H     2.946000000     1.826000000     5.948000000
O     8.449000000     1.228000000     6.710000000
H     9.127000000     1.221000000     6.034000000
H     8.026000000     0.372000000     6.633000000
O     5.122000000     0.863000000     8.597000000
H     5.305000000     0.044000000     9.057000000
H     5.331000000     0.676000000     7.682000000
O     5.120000000     1.110000000     0.944000000
H     5.001000000     1.715000000     1.676000000
H     4.309000000     0.604000000     0.918000000
O     7.069000000     2.174000000     4.309000000
H     7.853000000     1.688000000     4.566000000
H     7.405000000     2.940000000     3.844000000
O    -1.989000000    -5.001000000     6.410000000
H    -2.580000000    -4.695000000     5.722000000
H    -1.121000000    -4.720000000     6.122000000
O     0.289000000    -0.415000000     9.462000000
H     0.347000000     0.466000000     9.093000000
H     0.875000000    -0.941000000     8.918000000
O     6.821000000    -1.100000000     2.301000000
H     6.094000000    -1.236000000     2.908000000
H     6.638000000    -1.692000000     1.571000000
O     8.025000000     0.864000000     0.151000000
H     7.101000000     1.044000000    -0.018000000
H     8.069000000     0.700000000     1.093000000
O     4.606000000     2.903000000     3.181000000
H     5.455000000     2.824000000     3.615000000
H     3.967000000     2.840000000     3.890000000
O     6.165000000    -2.924000000     5.434000000
H     5.463000000    -3.195000000     6.026000000
H     5.714000000    -2.667000000     4.630000000
O     5.471000000     0.314000000     5.974000000
H     4.748000000    -0.032000000     5.451000000
H     5.894000000     0.955000000     5.402000000
O     5.954000000    -2.024000000     8.394000000
H     6.883000000    -1.907000000     8.198000000
H     5.552000000    -2.211000000     7.545000000
