218
-1449.79083
C    -4.399000000     0.778000000    -0.887000000
H    -3.773000000     1.326000000    -1.587000000
C    -4.306000000     1.126000000     0.476000000
C    -4.986000000     0.334000000     1.338000000
H    -4.846000000     0.633000000     2.374000000
C    -3.414000000     2.256000000     0.989000000
O    -3.468000000     3.547000000     0.276000000
H    -2.371000000     1.918000000     0.904000000
O    -3.620000000     2.662000000     2.325000000
C    -2.535000000     2.622000000     3.133000000
C    -2.272000000     1.503000000     3.927000000
H    -2.880000000     0.603000000     3.877000000
C    -1.034000000     1.351000000     4.571000000
O    -0.722000000     0.127000000     5.090000000
C    -0.055000000     2.356000000     4.507000000
C     1.348000000     2.103000000     5.063000000
H     1.712000000     3.061000000     5.440000000
C     2.265000000     1.395000000     4.050000000
C     3.159000000     2.145000000     3.355000000
H     3.191000000     3.231000000     3.345000000
H     1.279000000     1.467000000     5.948000000
C    -0.308000000     3.507000000     3.792000000
H     0.489000000     4.237000000     3.676000000
C    -1.520000000     3.638000000     3.043000000
C    -1.728000000     4.882000000     2.128000000
H    -1.158000000     5.722000000     2.531000000
H    -2.805000000     5.060000000     2.146000000
C    -1.342000000     4.690000000     0.668000000
C    -0.062000000     5.048000000     0.245000000
H     0.572000000     5.483000000     1.013000000
C    -2.207000000     4.006000000    -0.161000000
C    -1.765000000     3.749000000    -1.461000000
H    -2.424000000     3.197000000    -2.126000000
C    -0.486000000     4.174000000    -1.907000000
O    -0.107000000     3.973000000    -3.229000000
C     0.784000000     2.845000000    -3.433000000
C     0.325000000     1.936000000    -4.585000000
C     1.255000000     1.241000000    -5.338000000
H     2.306000000     1.319000000    -5.069000000
C    -0.977000000     1.813000000    -4.981000000
H    -1.828000000     2.232000000    -4.450000000
O     2.154000000     3.275000000    -3.601000000
H     0.763000000     2.252000000    -2.507000000
C     0.409000000     4.855000000    -1.065000000
C     1.885000000     5.202000000    -1.497000000
H     2.145000000     6.025000000    -0.828000000
H     1.796000000     5.587000000    -2.516000000
C     2.871000000     4.059000000    -1.414000000
C     3.509000000     3.774000000    -0.192000000
H     3.448000000     4.520000000     0.596000000
C     3.003000000     3.186000000    -2.484000000
C     3.784000000     2.072000000    -2.293000000
H     3.984000000     1.406000000    -3.129000000
C     4.216000000     1.640000000    -1.051000000
O     4.575000000     0.316000000    -0.973000000
C     3.995000000    -0.629000000    -0.038000000
C     4.028000000    -2.078000000    -0.670000000
C     3.863000000    -2.175000000    -2.104000000
H     3.650000000    -1.286000000    -2.692000000
C     4.106000000    -3.252000000     0.060000000
H     4.123000000    -3.173000000     1.144000000
O     4.517000000    -0.619000000     1.284000000
H     2.938000000    -0.325000000    -0.035000000
C     4.211000000     2.583000000    -0.011000000
C     4.808000000     2.234000000     1.366000000
H     5.209000000     3.179000000     1.739000000
H     5.737000000     1.683000000     1.207000000
C     3.931000000     1.441000000     2.379000000
C     3.853000000     0.052000000     2.304000000
C     2.999000000    -0.672000000     3.042000000
H     3.016000000    -1.752000000     2.920000000
C     2.226000000     0.011000000     3.939000000
O     1.380000000    -0.752000000     4.679000000
C    -0.023000000    -0.700000000     4.223000000
H     0.006000000    -0.272000000     3.210000000
C    -0.587000000    -2.075000000     4.150000000
C    -1.918000000    -2.345000000     4.435000000
H    -2.607000000    -1.549000000     4.705000000
C     0.169000000    -3.105000000     3.658000000
H     1.192000000    -3.013000000     3.301000000
C    -0.204000000    -4.431000000     3.714000000
O     0.535000000    -5.579000000     3.438000000
C    -1.516000000    -4.727000000     4.054000000
H    -1.979000000    -5.710000000     4.064000000
C    -2.382000000    -3.683000000     4.320000000
O    -3.708000000    -3.974000000     4.593000000
C    -4.751000000    -3.071000000     4.406000000
C    -5.095000000    -2.672000000     3.081000000
H    -4.549000000    -2.930000000     2.177000000
C    -5.506000000    -2.630000000     5.512000000
H    -5.200000000    -2.921000000     6.514000000
C    -6.496000000    -1.667000000     5.299000000
H    -6.987000000    -1.290000000     6.193000000
C    -6.854000000    -1.275000000     4.025000000
H    -7.568000000    -0.485000000     3.806000000
C    -6.178000000    -1.836000000     2.948000000
O    -6.633000000    -1.391000000     1.691000000
C    -5.882000000    -0.591000000     0.862000000
C    -6.006000000    -0.878000000    -0.473000000
H    -6.634000000    -1.665000000    -0.882000000
C    -5.161000000    -0.232000000    -1.377000000
O    -5.177000000    -0.667000000    -2.695000000
C    -5.027000000     0.282000000    -3.755000000
C    -3.951000000     0.192000000    -4.590000000
H    -3.169000000    -0.548000000    -4.441000000
C    -5.931000000     1.293000000    -3.897000000
H    -6.702000000     1.430000000    -3.143000000
C    -5.713000000     2.284000000    -4.879000000
H    -6.326000000     3.176000000    -4.978000000
C    -4.684000000     2.106000000    -5.806000000
H    -4.670000000     2.884000000    -6.565000000
C    -3.779000000     1.095000000    -5.664000000
O    -2.652000000     1.015000000    -6.439000000
C    -1.347000000     0.992000000    -6.034000000
C    -0.424000000     0.348000000    -6.821000000
H    -0.717000000    -0.224000000    -7.697000000
C     0.905000000     0.480000000    -6.465000000
O     1.806000000    -0.249000000    -7.184000000
C     2.822000000    -1.021000000    -6.711000000
C     2.615000000    -1.876000000    -5.622000000
H     1.633000000    -2.087000000    -5.207000000
C     4.080000000    -0.626000000    -6.989000000
H     4.331000000     0.138000000    -7.720000000
C     5.167000000    -1.239000000    -6.395000000
H     6.171000000    -0.914000000    -6.657000000
C     4.993000000    -2.247000000    -5.473000000
H     5.786000000    -2.914000000    -5.144000000
C     3.664000000    -2.570000000    -5.019000000
O     3.534000000    -3.504000000    -4.087000000
C     3.679000000    -3.429000000    -2.721000000
C     3.820000000    -4.581000000    -1.918000000
H     3.854000000    -5.510000000    -2.481000000
C     4.043000000    -4.463000000    -0.576000000
O     4.011000000    -5.584000000     0.156000000
C     3.631000000    -5.698000000     1.450000000
C     4.524000000    -5.885000000     2.451000000
H     5.499000000    -6.190000000     2.079000000
C     4.099000000    -5.900000000     3.813000000
H     4.797000000    -6.194000000     4.592000000
C     2.765000000    -5.818000000     4.120000000
H     2.395000000    -5.963000000     5.132000000
C     1.835000000    -5.635000000     3.110000000
C     2.288000000    -5.697000000     1.762000000
H     1.586000000    -5.687000000     0.932000000
C     0.391000000    -2.735000000    -0.471000000
H     0.523000000    -3.731000000    -0.057000000
C     0.529000000    -1.547000000     0.317000000
H     0.864000000    -1.632000000     1.347000000
C     0.292000000    -0.284000000    -0.211000000
C     0.386000000     0.881000000     0.683000000
H     0.095000000     1.829000000     0.227000000
H    -0.292000000     0.787000000     1.534000000
H     1.418000000     1.009000000     1.017000000
C    -0.134000000    -0.174000000    -1.514000000
H    -0.490000000     0.780000000    -1.892000000
C    -0.218000000    -1.343000000    -2.307000000
H    -0.579000000    -1.154000000    -3.315000000
C     0.043000000    -2.631000000    -1.884000000
C    -0.029000000    -3.850000000    -2.768000000
O    -0.476000000    -3.678000000    -3.869000000
O     0.281000000    -5.006000000    -2.432000000
O    -0.132000000    -6.647000000    -4.614000000
H    -0.060000000    -5.996000000    -3.916000000
H    -1.074000000    -6.785000000    -4.715000000
O    -2.558000000    -6.623000000    -6.120000000
H    -3.504000000    -6.754000000    -6.173000000
H    -2.215000000    -7.034000000    -6.913000000
O     1.363000000    -9.116000000    -4.946000000
H     0.987000000    -8.237000000    -4.984000000
H     0.988000000    -9.503000000    -4.154000000
O     3.857000000    -8.466000000    -2.784000000
H     4.380000000    -7.706000000    -3.038000000
H     3.224000000    -8.122000000    -2.155000000
O    -5.326000000    -4.486000000    -0.297000000
H    -5.647000000    -4.319000000    -1.184000000
H    -4.705000000    -3.777000000    -0.131000000
O     0.553000000    -5.830000000    -7.455000000
H     0.123000000    -5.470000000    -6.680000000
H    -0.162000000    -6.182000000    -7.984000000
O    -4.292000000    -6.886000000     0.634000000
H    -4.990000000    -6.250000000     0.478000000
H    -3.521000000    -6.503000000     0.215000000
O    -5.603000000    -4.745000000    -3.483000000
H    -5.848000000    -5.494000000    -2.940000000
H    -5.228000000    -5.134000000    -4.273000000
O    -1.474000000    -4.272000000    -6.263000000
H    -1.878000000    -5.138000000    -6.207000000
H    -1.180000000    -4.087000000    -5.371000000
O    -2.375000000    -3.642000000    -8.785000000
H    -3.083000000    -4.218000000    -9.074000000
H    -2.240000000    -3.870000000    -7.865000000
O    -4.502000000    -3.118000000    -6.274000000
H    -5.108000000    -2.385000000    -6.379000000
H    -3.811000000    -2.779000000    -5.706000000
O    -0.191000000    -7.531000000     0.822000000
H    -0.001000000    -8.428000000     1.099000000
H    -0.312000000    -7.049000000     1.639000000
O    -3.034000000    -2.627000000    -0.024000000
H    -3.205000000    -2.064000000    -0.779000000
H    -2.139000000    -2.410000000     0.238000000
O    -1.842000000    -6.586000000    -1.802000000
H    -1.397000000    -7.004000000    -1.065000000
H    -1.222000000    -5.927000000    -2.114000000
O     3.077000000    -6.113000000    -5.827000000
H     2.386000000    -5.889000000    -6.452000000
H     2.767000000    -5.760000000    -4.993000000
O     1.543000000    -7.187000000    -1.157000000
H     1.358000000    -6.374000000    -1.627000000
H     0.846000000    -7.249000000    -0.503000000
O    -2.988000000    -2.927000000    -3.883000000
H    -2.129000000    -3.340000000    -3.967000000
H    -3.611000000    -3.634000000    -4.054000000
O    -3.372000000    -8.565000000    -2.871000000
H    -2.761000000    -7.854000000    -2.676000000
H    -3.456000000    -9.041000000    -2.045000000
O     0.673000000    -9.489000000    -2.380000000
H     1.186000000    -9.966000000    -1.727000000
H     0.715000000    -8.576000000    -2.097000000
