218
-1490.75029
C    -1.394000000    -4.549000000     3.007000000
H    -1.833000000    -5.191000000     2.249000000
C    -1.826000000    -3.259000000     3.167000000
C    -1.343000000    -2.465000000     4.173000000
H    -1.696000000    -1.445000000     4.302000000
C    -2.849000000    -2.676000000     2.172000000
O    -3.546000000    -3.661000000     1.353000000
H    -2.101000000    -2.195000000     1.526000000
O    -3.737000000    -1.696000000     2.706000000
C    -3.890000000    -0.485000000     2.123000000
C    -3.340000000     0.696000000     2.693000000
H    -2.730000000     0.535000000     3.579000000
C    -3.553000000     1.921000000     2.121000000
O    -2.983000000     3.003000000     2.767000000
C    -4.238000000     2.096000000     0.919000000
C    -4.498000000     3.438000000     0.255000000
H    -5.414000000     3.396000000    -0.337000000
C    -3.226000000     3.744000000    -0.603000000
C    -3.255000000     3.414000000    -1.990000000
H    -4.088000000     2.893000000    -2.454000000
H    -4.547000000     4.226000000     1.009000000
C    -4.877000000     0.914000000     0.399000000
H    -5.406000000     0.967000000    -0.549000000
C    -4.685000000    -0.360000000     0.963000000
C    -5.279000000    -1.598000000     0.292000000
H    -6.151000000    -1.249000000    -0.266000000
H    -5.671000000    -2.324000000     1.006000000
C    -4.335000000    -2.393000000    -0.613000000
C    -4.225000000    -2.006000000    -1.932000000
H    -4.815000000    -1.146000000    -2.238000000
C    -3.499000000    -3.356000000    -0.073000000
C    -2.539000000    -3.958000000    -0.888000000
H    -1.962000000    -4.791000000    -0.496000000
C    -2.337000000    -3.511000000    -2.171000000
O    -1.181000000    -3.944000000    -2.761000000
C    -0.152000000    -2.931000000    -2.968000000
C     1.133000000    -3.672000000    -2.714000000
C     2.306000000    -3.437000000    -3.549000000
H     2.226000000    -2.906000000    -4.494000000
C     1.395000000    -4.393000000    -1.504000000
H     0.605000000    -4.485000000    -0.763000000
O    -0.219000000    -2.367000000    -4.287000000
H    -0.196000000    -2.117000000    -2.230000000
C    -3.180000000    -2.551000000    -2.711000000
C    -2.951000000    -2.011000000    -4.097000000
H    -3.898000000    -1.730000000    -4.564000000
H    -2.657000000    -2.822000000    -4.766000000
C    -2.008000000    -0.853000000    -4.285000000
C    -2.451000000     0.477000000    -4.223000000
H    -3.487000000     0.761000000    -4.055000000
C    -0.663000000    -1.086000000    -4.443000000
C     0.219000000    -0.044000000    -4.598000000
H     1.292000000    -0.216000000    -4.586000000
C    -0.222000000     1.232000000    -4.392000000
O     0.697000000     2.251000000    -4.215000000
C     0.934000000     2.714000000    -2.897000000
C     2.427000000     2.864000000    -2.644000000
C     3.347000000     2.033000000    -3.302000000
H     3.008000000     1.272000000    -4.001000000
C     2.885000000     3.707000000    -1.645000000
H     2.185000000     4.317000000    -1.080000000
O     0.346000000     3.999000000    -2.749000000
H     0.525000000     2.058000000    -2.114000000
C    -1.574000000     1.516000000    -4.310000000
C    -2.194000000     2.936000000    -4.199000000
H    -3.222000000     2.983000000    -4.563000000
H    -1.689000000     3.599000000    -4.905000000
C    -2.063000000     3.542000000    -2.766000000
C    -0.883000000     4.065000000    -2.147000000
C    -0.944000000     4.390000000    -0.829000000
H     0.016000000     4.679000000    -0.409000000
C    -2.127000000     4.363000000    -0.084000000
O    -2.010000000     4.555000000     1.255000000
C    -1.732000000     3.452000000     2.158000000
H    -1.229000000     2.748000000     1.480000000
C    -0.646000000     3.768000000     3.133000000
C    -0.554000000     3.074000000     4.317000000
H    -1.356000000     2.363000000     4.496000000
C     0.376000000     4.647000000     2.774000000
H     0.382000000     5.196000000     1.835000000
C     1.432000000     4.857000000     3.684000000
O     2.322000000     5.911000000     3.405000000
C     1.497000000     4.134000000     4.869000000
H     2.341000000     4.378000000     5.509000000
C     0.559000000     3.199000000     5.148000000
O     0.512000000     2.501000000     6.347000000
C    -0.107000000     1.328000000     6.647000000
C     0.372000000     0.180000000     6.152000000
H     1.266000000     0.218000000     5.534000000
C    -1.237000000     1.310000000     7.456000000
H    -1.652000000     2.188000000     7.943000000
C    -1.863000000     0.109000000     7.737000000
H    -2.760000000     0.047000000     8.348000000
C    -1.395000000    -1.034000000     7.177000000
H    -2.006000000    -1.931000000     7.226000000
C    -0.264000000    -0.986000000     6.442000000
O     0.250000000    -2.176000000     5.967000000
C    -0.321000000    -2.927000000     4.991000000
C     0.106000000    -4.253000000     4.909000000
H     0.855000000    -4.728000000     5.537000000
C    -0.400000000    -5.050000000     3.874000000
O     0.104000000    -6.307000000     3.747000000
C     0.489000000    -6.672000000     2.540000000
C     1.535000000    -5.989000000     1.864000000
H     2.039000000    -5.194000000     2.407000000
C    -0.156000000    -7.758000000     1.948000000
H    -0.953000000    -8.284000000     2.467000000
C     0.271000000    -8.111000000     0.677000000
H    -0.236000000    -8.984000000     0.274000000
C     1.214000000    -7.393000000    -0.012000000
H     1.411000000    -7.714000000    -1.032000000
C     1.930000000    -6.325000000     0.571000000
O     2.876000000    -5.579000000    -0.015000000
C     2.635000000    -4.913000000    -1.188000000
C     3.776000000    -4.569000000    -1.939000000
H     4.744000000    -4.939000000    -1.613000000
C     3.625000000    -3.786000000    -3.074000000
O     4.736000000    -3.540000000    -3.855000000
C     4.876000000    -2.271000000    -4.438000000
C     5.279000000    -1.178000000    -3.690000000
H     5.631000000    -1.308000000    -2.670000000
C     4.616000000    -2.134000000    -5.786000000
H     4.435000000    -3.076000000    -6.298000000
C     4.664000000    -0.865000000    -6.400000000
H     4.432000000    -0.813000000    -7.461000000
C     5.056000000     0.228000000    -5.666000000
H     5.036000000     1.204000000    -6.143000000
C     5.383000000     0.060000000    -4.318000000
O     5.677000000     1.245000000    -3.631000000
C     4.717000000     2.067000000    -2.964000000
C     5.191000000     2.966000000    -2.047000000
H     6.248000000     2.967000000    -1.795000000
C     4.291000000     3.762000000    -1.337000000
O     4.807000000     4.534000000    -0.344000000
C     4.062000000     5.543000000     0.240000000
C     3.658000000     6.731000000    -0.404000000
H     4.027000000     6.904000000    -1.412000000
C     2.769000000     7.628000000     0.228000000
H     2.483000000     8.580000000    -0.212000000
C     2.469000000     7.398000000     1.569000000
H     1.709000000     8.009000000     2.050000000
C     2.763000000     6.163000000     2.105000000
C     3.507000000     5.233000000     1.456000000
H     3.682000000     4.300000000     1.986000000
C     1.506000000    -2.039000000     1.696000000
H     1.416000000    -2.544000000     2.654000000
C     0.482000000    -1.268000000     1.138000000
H    -0.494000000    -1.204000000     1.613000000
C     0.558000000    -0.790000000    -0.127000000
C    -0.558000000     0.029000000    -0.662000000
H    -0.543000000     0.244000000    -1.732000000
H    -1.518000000    -0.473000000    -0.526000000
H    -0.612000000     0.913000000    -0.023000000
C     1.804000000    -0.811000000    -0.741000000
H     1.899000000    -0.301000000    -1.696000000
C     2.862000000    -1.470000000    -0.182000000
H     3.807000000    -1.523000000    -0.716000000
C     2.726000000    -2.094000000     1.035000000
C     3.888000000    -2.825000000     1.586000000
O     4.895000000    -3.015000000     0.912000000
O     3.847000000    -3.178000000     2.727000000
O     5.787000000    -5.710000000     1.118000000
H     5.198000000    -6.303000000     0.652000000
H     5.362000000    -4.854000000     1.057000000
O     6.522000000    -0.245000000     1.041000000
H     7.297000000    -0.174000000     1.599000000
H     6.533000000    -1.150000000     0.730000000
O     8.941000000    -4.383000000     0.844000000
H     8.067000000    -3.994000000     0.843000000
H     9.380000000    -3.988000000     0.090000000
O     6.768000000    -2.909000000    -0.685000000
H     6.515000000    -3.573000000    -1.327000000
H     6.002000000    -2.821000000    -0.118000000
O     9.203000000    -2.604000000     3.940000000
H     8.352000000    -2.959000000     3.680000000
H     9.117000000    -2.439000000     4.879000000
O     3.650000000    -2.265000000     5.267000000
H     3.623000000    -1.322000000     5.433000000
H     3.711000000    -2.338000000     4.315000000
O     6.518000000    -0.774000000     4.436000000
H     6.638000000    -1.599000000     3.966000000
H     5.614000000    -0.807000000     4.751000000
O     1.824000000     1.867000000     0.977000000
H     2.711000000     2.096000000     0.699000000
H     1.862000000     0.925000000     1.143000000
O     8.551000000    -0.010000000    -1.637000000
H     7.729000000    -0.140000000    -1.165000000
H     8.717000000    -0.850000000    -2.066000000
O     3.653000000    -2.416000000     7.954000000
H     2.775000000    -2.092000000     8.158000000
H     3.784000000    -2.190000000     7.033000000
O     9.295000000    -0.744000000     1.885000000
H     9.122000000    -1.506000000     2.438000000
H     9.978000000    -1.036000000     1.281000000
O     4.667000000     1.847000000     1.357000000
H     5.308000000     2.538000000     1.523000000
H     5.179000000     1.130000000     0.982000000
O     6.997000000    -4.103000000     6.148000000
H     7.725000000    -4.420000000     6.683000000
H     6.747000000    -4.857000000     5.614000000
O     3.406000000    -7.903000000     3.525000000
H     3.311000000    -6.956000000     3.419000000
H     4.331000000    -8.028000000     3.737000000
O     6.765000000    -3.248000000     3.101000000
H     5.885000000    -3.135000000     2.741000000
H     6.905000000    -4.195000000     3.096000000
O     4.321000000     0.314000000     5.606000000
H     3.975000000     0.952000000     4.982000000
H     5.129000000     0.712000000     5.932000000
O     8.081000000    -7.195000000     1.562000000
H     8.815000000    -6.582000000     1.599000000
H     7.313000000    -6.640000000     1.424000000
O     4.161000000    -5.059000000     4.552000000
H     4.002000000    -4.617000000     5.386000000
H     3.979000000    -4.394000000     3.889000000
O     3.236000000     1.655000000     3.695000000
H     2.455000000     2.000000000     3.263000000
H     3.886000000     1.585000000     2.996000000
