218
-1455.10889
C    -1.424000000    -4.440000000     2.833000000
H    -1.431000000    -4.953000000     1.875000000
C    -2.200000000    -3.347000000     2.917000000
C    -2.171000000    -2.553000000     4.129000000
H    -2.731000000    -1.621000000     4.161000000
C    -2.999000000    -2.811000000     1.712000000
O    -3.439000000    -3.757000000     0.670000000
H    -2.248000000    -2.215000000     1.174000000
O    -4.160000000    -1.931000000     2.015000000
C    -4.322000000    -0.741000000     1.347000000
C    -3.985000000     0.429000000     1.986000000
H    -3.551000000     0.446000000     2.982000000
C    -4.119000000     1.663000000     1.347000000
O    -3.558000000     2.833000000     1.979000000
C    -4.573000000     1.741000000     0.019000000
C    -4.540000000     3.055000000    -0.658000000
H    -5.235000000     2.875000000    -1.482000000
C    -3.185000000     3.340000000    -1.244000000
C    -2.948000000     3.008000000    -2.616000000
H    -3.752000000     2.495000000    -3.137000000
H    -4.942000000     3.862000000    -0.043000000
C    -5.038000000     0.583000000    -0.588000000
H    -5.440000000     0.599000000    -1.598000000
C    -5.027000000    -0.644000000     0.103000000
C    -5.273000000    -2.021000000    -0.598000000
H    -6.094000000    -2.077000000    -1.316000000
H    -5.677000000    -2.689000000     0.165000000
C    -3.990000000    -2.487000000    -1.299000000
C    -3.735000000    -2.092000000    -2.664000000
H    -4.365000000    -1.456000000    -3.281000000
C    -3.204000000    -3.387000000    -0.655000000
C    -2.091000000    -3.918000000    -1.243000000
H    -1.500000000    -4.601000000    -0.638000000
C    -1.830000000    -3.617000000    -2.550000000
O    -0.575000000    -3.964000000    -3.025000000
C     0.505000000    -2.971000000    -2.880000000
C     1.835000000    -3.529000000    -2.353000000
C     3.070000000    -3.068000000    -2.828000000
H     3.130000000    -2.230000000    -3.518000000
C     1.863000000    -4.495000000    -1.397000000
H     0.919000000    -4.849000000    -0.991000000
O     0.708000000    -2.303000000    -4.112000000
H     0.182000000    -2.226000000    -2.138000000
C    -2.594000000    -2.680000000    -3.296000000
C    -2.161000000    -2.083000000    -4.576000000
H    -2.995000000    -1.651000000    -5.133000000
H    -1.703000000    -2.871000000    -5.178000000
C    -1.200000000    -0.856000000    -4.480000000
C    -1.630000000     0.371000000    -4.520000000
H    -2.701000000     0.553000000    -4.550000000
C     0.159000000    -1.078000000    -4.318000000
C     1.075000000    -0.034000000    -4.313000000
H     2.132000000    -0.284000000    -4.298000000
C     0.564000000     1.254000000    -4.411000000
O     1.406000000     2.358000000    -4.249000000
C     1.371000000     2.962000000    -3.004000000
C     2.766000000     3.324000000    -2.554000000
C     3.806000000     2.398000000    -2.566000000
H     3.548000000     1.429000000    -2.985000000
C     3.067000000     4.458000000    -1.837000000
H     2.313000000     5.200000000    -1.586000000
O     0.470000000     4.119000000    -2.941000000
H     0.910000000     2.248000000    -2.306000000
C    -0.819000000     1.500000000    -4.571000000
C    -1.447000000     2.858000000    -4.655000000
H    -2.422000000     2.892000000    -5.144000000
H    -0.804000000     3.539000000    -5.217000000
C    -1.719000000     3.331000000    -3.238000000
C    -0.776000000     4.017000000    -2.476000000
C    -1.033000000     4.354000000    -1.150000000
H    -0.208000000     4.787000000    -0.590000000
C    -2.239000000     4.150000000    -0.553000000
O    -2.219000000     4.308000000     0.836000000
C    -2.167000000     3.132000000     1.607000000
H    -1.759000000     2.310000000     1.001000000
C    -1.220000000     3.356000000     2.809000000
C    -1.552000000     2.851000000     4.107000000
H    -2.423000000     2.248000000     4.351000000
C    -0.011000000     4.014000000     2.598000000
H     0.388000000     4.259000000     1.617000000
C     0.845000000     4.219000000     3.689000000
O     2.117000000     4.674000000     3.523000000
C     0.454000000     3.822000000     4.936000000
H     1.164000000     3.974000000     5.744000000
C    -0.693000000     3.118000000     5.174000000
O    -0.802000000     2.600000000     6.390000000
C    -1.449000000     1.372000000     6.643000000
C    -0.948000000     0.112000000     6.320000000
H     0.071000000     0.078000000     5.944000000
C    -2.713000000     1.475000000     7.215000000
H    -3.114000000     2.468000000     7.401000000
C    -3.567000000     0.365000000     7.423000000
H    -4.589000000     0.455000000     7.781000000
C    -2.995000000    -0.887000000     7.117000000
H    -3.681000000    -1.723000000     7.228000000
C    -1.753000000    -1.070000000     6.564000000
O    -1.212000000    -2.314000000     6.396000000
C    -1.334000000    -2.972000000     5.140000000
C    -0.638000000    -4.105000000     5.034000000
H     0.108000000    -4.490000000     5.724000000
C    -0.581000000    -4.799000000     3.847000000
O     0.084000000    -5.982000000     3.696000000
C     0.303000000    -6.595000000     2.474000000
C     1.442000000    -6.093000000     1.866000000
H     2.040000000    -5.356000000     2.396000000
C    -0.434000000    -7.616000000     1.880000000
H    -1.289000000    -8.077000000     2.368000000
C    -0.104000000    -8.083000000     0.656000000
H    -0.670000000    -8.893000000     0.204000000
C     1.085000000    -7.631000000     0.017000000
H     1.474000000    -8.145000000    -0.858000000
C     1.859000000    -6.609000000     0.575000000
O     2.981000000    -6.136000000    -0.029000000
C     3.050000000    -5.074000000    -0.927000000
C     4.239000000    -4.640000000    -1.429000000
H     5.110000000    -5.129000000    -1.002000000
C     4.313000000    -3.596000000    -2.377000000
O     5.592000000    -3.141000000    -2.832000000
C     5.737000000    -1.851000000    -3.336000000
C     5.996000000    -0.813000000    -2.430000000
H     5.880000000    -0.969000000    -1.361000000
C     5.710000000    -1.576000000    -4.709000000
H     5.534000000    -2.400000000    -5.396000000
C     5.966000000    -0.352000000    -5.148000000
H     6.147000000    -0.056000000    -6.178000000
C     6.208000000     0.705000000    -4.277000000
H     6.518000000     1.684000000    -4.632000000
C     6.100000000     0.486000000    -2.900000000
O     6.058000000     1.525000000    -2.043000000
C     5.037000000     2.557000000    -2.036000000
C     5.422000000     3.725000000    -1.505000000
H     6.445000000     3.847000000    -1.158000000
C     4.400000000     4.701000000    -1.370000000
O     4.611000000     5.732000000    -0.515000000
C     3.761000000     5.997000000     0.527000000
C     3.411000000     7.366000000     0.708000000
H     3.732000000     8.106000000    -0.021000000
C     2.675000000     7.770000000     1.797000000
H     2.533000000     8.843000000     1.902000000
C     2.196000000     6.835000000     2.693000000
H     1.634000000     7.099000000     3.585000000
C     2.510000000     5.466000000     2.480000000
C     3.341000000     5.007000000     1.414000000
H     3.581000000     3.956000000     1.274000000
C     1.151000000    -1.587000000     2.173000000
H     0.878000000    -1.789000000     3.205000000
C     0.248000000    -0.868000000     1.429000000
H    -0.745000000    -0.586000000     1.769000000
C     0.502000000    -0.547000000     0.122000000
C    -0.605000000     0.116000000    -0.698000000
H    -1.566000000     0.034000000    -0.187000000
H    -0.380000000     1.183000000    -0.750000000
H    -0.696000000    -0.328000000    -1.692000000
C     1.739000000    -0.867000000    -0.389000000
H     2.015000000    -0.530000000    -1.385000000
C     2.667000000    -1.604000000     0.351000000
H     3.654000000    -1.756000000    -0.079000000
C     2.362000000    -2.077000000     1.618000000
C     3.267000000    -2.979000000     2.351000000
O     4.388000000    -3.324000000     1.918000000
O     2.983000000    -3.461000000     3.451000000
O     5.584000000    -0.861000000     2.160000000
H     5.477000000    -1.807000000     2.064000000
H     6.324000000    -0.645000000     1.593000000
O     8.324000000    -1.542000000     5.407000000
H     9.071000000    -0.970000000     5.230000000
H     8.167000000    -1.994000000     4.578000000
O     2.572000000     0.899000000     5.089000000
H     2.968000000     0.041000000     5.239000000
H     2.521000000     0.976000000     4.136000000
O     6.892000000    -3.931000000     4.774000000
H     6.824000000    -3.104000000     5.251000000
H     7.102000000    -3.673000000     3.876000000
O     5.600000000    -5.457000000     2.092000000
H     5.272000000    -5.878000000     2.887000000
H     5.184000000    -4.595000000     2.088000000
O     5.645000000     0.355000000     4.783000000
H     5.363000000    -0.448000000     5.221000000
H     5.465000000     0.198000000     3.856000000
O     4.752000000    -8.200000000     1.036000000
H     5.206000000    -7.912000000     1.828000000
H     4.416000000    -7.394000000     0.646000000
O     8.068000000    -6.521000000     1.062000000
H     7.848000000    -7.026000000     0.279000000
H     7.224000000    -6.342000000     1.476000000
O     2.532000000     1.266000000     2.379000000
H     1.820000000     0.982000000     1.805000000
H     3.329000000     1.057000000     1.892000000
O     5.967000000    -7.986000000     3.432000000
H     5.715000000    -7.372000000     4.121000000
H     6.394000000    -8.706000000     3.896000000
O     6.784000000    -1.880000000     7.725000000
H     7.365000000    -1.542000000     7.044000000
H     6.001000000    -2.163000000     7.254000000
O     2.577000000    -8.502000000     3.385000000
H     3.223000000    -8.085000000     2.815000000
H     3.097000000    -9.033000000     3.988000000
O     4.438000000    -5.343000000     4.643000000
H     5.311000000    -4.954000000     4.687000000
H     3.883000000    -4.647000000     4.290000000
O     8.553000000    -2.520000000     2.447000000
H     8.085000000    -2.626000000     1.619000000
H     9.146000000    -1.784000000     2.295000000
O     4.589000000     2.737000000     4.256000000
H     3.670000000     2.997000000     4.200000000
H     4.562000000     1.811000000     4.496000000
O     6.766000000    -2.905000000     0.384000000
H     7.118000000    -3.485000000    -0.292000000
H     6.017000000    -3.381000000     0.742000000
O     4.534000000    -3.634000000     7.593000000
H     4.322000000    -4.568000000     7.609000000
H     3.832000000    -3.221000000     8.096000000
O     3.675000000    -1.649000000     5.160000000
H     3.446000000    -2.049000000     5.999000000
H     3.361000000    -2.271000000     4.504000000
O     2.536000000    -6.659000000     6.076000000
H     3.105000000    -6.141000000     5.506000000
H     1.853000000    -6.990000000     5.493000000
