218
-1462.16331
C    -4.601000000     0.863000000    -1.366000000
H    -3.929000000     1.414000000    -2.019000000
C    -4.453000000     1.158000000    -0.030000000
C    -5.236000000     0.490000000     0.955000000
H    -5.018000000     0.661000000     2.006000000
C    -3.368000000     2.168000000     0.511000000
O    -3.457000000     3.444000000    -0.259000000
H    -2.381000000     1.699000000     0.387000000
O    -3.623000000     2.506000000     1.872000000
C    -2.567000000     2.526000000     2.693000000
C    -2.275000000     1.413000000     3.489000000
H    -3.039000000     0.640000000     3.496000000
C    -1.256000000     1.349000000     4.375000000
O    -0.976000000     0.137000000     4.868000000
C    -0.285000000     2.384000000     4.380000000
C     1.040000000     2.200000000     5.057000000
H     1.388000000     3.190000000     5.360000000
C     2.077000000     1.530000000     4.146000000
C     3.002000000     2.229000000     3.425000000
H     3.047000000     3.311000000     3.518000000
H     0.842000000     1.673000000     5.992000000
C    -0.528000000     3.556000000     3.581000000
H     0.228000000     4.335000000     3.624000000
C    -1.728000000     3.654000000     2.785000000
C    -2.001000000     4.878000000     1.904000000
H    -1.558000000     5.774000000     2.342000000
H    -3.066000000     5.109000000     1.832000000
C    -1.423000000     4.620000000     0.530000000
C    -0.084000000     4.903000000     0.209000000
H     0.610000000     5.305000000     0.942000000
C    -2.247000000     4.058000000    -0.479000000
C    -1.768000000     3.928000000    -1.743000000
H    -2.384000000     3.393000000    -2.462000000
C    -0.442000000     4.125000000    -2.062000000
O     0.051000000     3.727000000    -3.296000000
C     0.876000000     2.559000000    -3.269000000
C     0.461000000     1.594000000    -4.347000000
C     1.199000000     0.457000000    -4.711000000
H     2.179000000     0.340000000    -4.255000000
C    -0.827000000     1.638000000    -4.977000000
H    -1.547000000     2.387000000    -4.656000000
O     2.303000000     2.910000000    -3.290000000
H     0.661000000     1.972000000    -2.364000000
C     0.414000000     4.690000000    -1.099000000
C     1.881000000     5.027000000    -1.342000000
H     2.225000000     5.797000000    -0.648000000
H     2.006000000     5.460000000    -2.337000000
C     2.772000000     3.795000000    -1.073000000
C     3.457000000     3.686000000     0.146000000
H     3.358000000     4.475000000     0.887000000
C     2.942000000     2.830000000    -2.044000000
C     3.785000000     1.780000000    -1.874000000
H     3.907000000     1.041000000    -2.662000000
C     4.553000000     1.659000000    -0.696000000
O     5.267000000     0.513000000    -0.448000000
C     4.574000000    -0.503000000     0.281000000
C     4.783000000    -1.847000000    -0.346000000
C     5.155000000    -1.973000000    -1.720000000
H     5.513000000    -1.106000000    -2.271000000
C     4.144000000    -3.011000000     0.201000000
H     3.828000000    -2.816000000     1.222000000
O     4.866000000    -0.583000000     1.770000000
H     3.492000000    -0.302000000     0.286000000
C     4.336000000     2.602000000     0.364000000
C     4.933000000     2.388000000     1.759000000
H     5.014000000     3.395000000     2.174000000
H     5.925000000     1.931000000     1.774000000
C     3.936000000     1.557000000     2.632000000
C     3.977000000     0.167000000     2.598000000
C     3.031000000    -0.517000000     3.386000000
H     2.990000000    -1.598000000     3.493000000
C     2.136000000     0.146000000     4.196000000
O     1.153000000    -0.687000000     4.727000000
C    -0.122000000    -0.733000000     4.106000000
H     0.037000000    -0.491000000     3.045000000
C    -0.732000000    -2.116000000     4.196000000
C    -2.136000000    -2.309000000     4.374000000
H    -2.759000000    -1.421000000     4.446000000
C     0.084000000    -3.258000000     4.026000000
H     1.158000000    -3.144000000     3.896000000
C    -0.417000000    -4.511000000     3.978000000
O     0.421000000    -5.613000000     3.914000000
C    -1.845000000    -4.651000000     4.120000000
H    -2.355000000    -5.610000000     4.120000000
C    -2.709000000    -3.596000000     4.287000000
O    -4.062000000    -3.872000000     4.452000000
C    -4.966000000    -2.862000000     4.246000000
C    -5.228000000    -2.528000000     2.908000000
H    -4.674000000    -3.041000000     2.126000000
C    -5.659000000    -2.319000000     5.239000000
H    -5.316000000    -2.696000000     6.199000000
C    -6.725000000    -1.385000000     5.039000000
H    -7.310000000    -0.949000000     5.845000000
C    -6.974000000    -1.019000000     3.714000000
H    -7.732000000    -0.324000000     3.361000000
C    -6.283000000    -1.656000000     2.659000000
O    -6.660000000    -1.454000000     1.351000000
C    -6.052000000    -0.562000000     0.528000000
C    -6.195000000    -0.848000000    -0.797000000
H    -6.742000000    -1.739000000    -1.093000000
C    -5.474000000    -0.096000000    -1.733000000
O    -5.746000000    -0.379000000    -3.100000000
C    -5.259000000     0.465000000    -4.138000000
C    -4.104000000     0.211000000    -4.818000000
H    -3.549000000    -0.722000000    -4.851000000
C    -5.932000000     1.646000000    -4.388000000
H    -6.829000000     1.765000000    -3.786000000
C    -5.479000000     2.623000000    -5.259000000
H    -5.972000000     3.582000000    -5.395000000
C    -4.281000000     2.368000000    -5.911000000
H    -3.750000000     3.089000000    -6.527000000
C    -3.640000000     1.147000000    -5.756000000
O    -2.479000000     0.970000000    -6.508000000
C    -1.273000000     0.717000000    -5.942000000
C    -0.471000000    -0.371000000    -6.321000000
H    -0.818000000    -1.129000000    -7.019000000
C     0.753000000    -0.485000000    -5.677000000
O     1.635000000    -1.479000000    -6.111000000
C     2.978000000    -1.417000000    -5.814000000
C     3.477000000    -2.294000000    -4.839000000
H     2.734000000    -2.796000000    -4.224000000
C     3.803000000    -1.048000000    -6.838000000
H     3.309000000    -0.465000000    -7.611000000
C     5.164000000    -1.218000000    -6.771000000
H     5.733000000    -0.828000000    -7.611000000
C     5.712000000    -2.081000000    -5.768000000
H     6.754000000    -2.393000000    -5.749000000
C     4.837000000    -2.496000000    -4.741000000
O     5.350000000    -3.233000000    -3.713000000
C     4.932000000    -3.155000000    -2.418000000
C     4.236000000    -4.227000000    -1.884000000
H     3.929000000    -5.095000000    -2.462000000
C     3.816000000    -4.152000000    -0.523000000
O     3.036000000    -5.149000000    -0.008000000
C     2.952000000    -5.443000000     1.341000000
C     4.087000000    -5.784000000     1.997000000
H     5.066000000    -5.851000000     1.529000000
C     4.003000000    -6.007000000     3.377000000
H     4.898000000    -6.265000000     3.938000000
C     2.789000000    -5.861000000     4.002000000
H     2.627000000    -5.845000000     5.077000000
C     1.642000000    -5.618000000     3.271000000
C     1.712000000    -5.408000000     1.940000000
H     0.760000000    -5.310000000     1.426000000
C     0.635000000    -2.624000000    -1.056000000
H     0.997000000    -3.583000000    -0.695000000
C     0.956000000    -1.486000000    -0.324000000
H     1.529000000    -1.654000000     0.584000000
C     0.339000000    -0.311000000    -0.603000000
C     0.621000000     0.903000000     0.319000000
H     1.353000000     1.547000000    -0.173000000
H    -0.239000000     1.565000000     0.444000000
H     0.997000000     0.538000000     1.277000000
C    -0.537000000    -0.168000000    -1.702000000
H    -1.077000000     0.755000000    -1.895000000
C    -0.794000000    -1.277000000    -2.523000000
H    -1.481000000    -1.258000000    -3.364000000
C    -0.270000000    -2.514000000    -2.199000000
C    -0.579000000    -3.746000000    -2.929000000
O    -1.251000000    -3.741000000    -3.975000000
O    -0.123000000    -4.823000000    -2.565000000
O     1.319000000    -5.812000000    -4.715000000
H     0.876000000    -5.348000000    -4.005000000
H     1.183000000    -6.739000000    -4.516000000
O    -0.667000000    -7.967000000    -5.971000000
H    -1.475000000    -8.414000000    -6.223000000
H    -0.022000000    -8.259000000    -6.615000000
O    -4.395000000    -5.834000000    -5.930000000
H    -5.133000000    -5.477000000    -6.425000000
H    -3.947000000    -6.410000000    -6.549000000
O    -4.707000000    -5.709000000    -1.509000000
H    -4.291000000    -6.074000000    -2.290000000
H    -4.564000000    -4.765000000    -1.580000000
O     1.014000000    -2.957000000    -8.700000000
H     0.564000000    -2.975000000    -7.856000000
H     0.691000000    -3.731000000    -9.161000000
O    -6.535000000    -3.330000000    -3.820000000
H    -5.648000000    -3.602000000    -3.582000000
H    -6.419000000    -2.805000000    -4.612000000
O    -3.345000000    -6.493000000     0.853000000
H    -3.911000000    -6.039000000     0.228000000
H    -2.477000000    -6.470000000     0.450000000
O    -4.387000000    -8.190000000    -3.988000000
H    -3.764000000    -7.474000000    -4.111000000
H    -5.152000000    -7.933000000    -4.503000000
O    -1.202000000    -9.546000000    -1.723000000
H    -1.161000000   -10.077000000    -0.927000000
H    -1.041000000    -8.652000000    -1.423000000
O    -0.536000000    -3.795000000    -6.572000000
H    -0.015000000    -4.597000000    -6.616000000
H    -0.840000000    -3.757000000    -5.665000000
O    -2.524000000    -2.956000000    -8.749000000
H    -1.842000000    -3.254000000    -8.148000000
H    -3.169000000    -2.528000000    -8.185000000
O    -4.370000000    -2.401000000    -6.472000000
H    -5.310000000    -2.425000000    -6.649000000
H    -4.251000000    -2.993000000    -5.729000000
O    -3.788000000    -3.146000000    -1.030000000
H    -2.907000000    -2.788000000    -0.926000000
H    -4.297000000    -2.427000000    -1.406000000
O    -1.013000000    -6.644000000    -0.287000000
H    -0.163000000    -6.845000000     0.105000000
H    -0.804000000    -6.355000000    -1.176000000
O     3.290000000    -5.555000000    -6.775000000
H     2.392000000    -5.549000000    -6.442000000
H     3.374000000    -4.729000000    -7.251000000
O     1.785000000    -7.106000000    -1.899000000
H     1.576000000    -6.176000000    -1.995000000
H     1.970000000    -7.214000000    -0.966000000
O    -3.878000000    -3.822000000    -4.005000000
H    -2.935000000    -3.672000000    -3.934000000
H    -3.965000000    -4.478000000    -4.697000000
O    -2.162000000    -6.717000000    -3.596000000
H    -1.652000000    -5.958000000    -3.314000000
H    -1.593000000    -7.171000000    -4.218000000
O     1.449000000    -9.644000000    -3.421000000
H     0.738000000   -10.249000000    -3.212000000
H     1.189000000    -8.818000000    -3.012000000
