218
-1490.20774
C    -0.821000000    -4.254000000     2.533000000
H    -0.867000000    -4.723000000     1.554000000
C    -1.664000000    -3.145000000     2.689000000
C    -1.564000000    -2.439000000     3.837000000
H    -2.172000000    -1.542000000     3.931000000
C    -2.705000000    -2.689000000     1.683000000
O    -3.208000000    -3.739000000     0.853000000
H    -2.140000000    -1.972000000     1.070000000
O    -3.809000000    -1.986000000     2.302000000
C    -4.178000000    -0.820000000     1.577000000
C    -3.745000000     0.339000000     2.188000000
H    -3.305000000     0.425000000     3.178000000
C    -3.958000000     1.564000000     1.580000000
O    -3.528000000     2.686000000     2.278000000
C    -4.578000000     1.622000000     0.370000000
C    -4.776000000     2.958000000    -0.357000000
H    -5.612000000     2.850000000    -1.052000000
C    -3.583000000     3.460000000    -1.122000000
C    -3.258000000     2.932000000    -2.351000000
H    -3.967000000     2.297000000    -2.875000000
H    -5.048000000     3.758000000     0.334000000
C    -5.003000000     0.463000000    -0.264000000
H    -5.542000000     0.667000000    -1.186000000
C    -4.793000000    -0.761000000     0.327000000
C    -5.258000000    -2.012000000    -0.430000000
H    -6.013000000    -1.690000000    -1.149000000
H    -5.797000000    -2.777000000     0.132000000
C    -4.010000000    -2.528000000    -1.141000000
C    -3.764000000    -2.169000000    -2.508000000
H    -4.426000000    -1.475000000    -3.019000000
C    -3.132000000    -3.437000000    -0.532000000
C    -2.019000000    -3.985000000    -1.210000000
H    -1.327000000    -4.661000000    -0.714000000
C    -1.799000000    -3.616000000    -2.498000000
O    -0.630000000    -3.981000000    -3.193000000
C     0.517000000    -3.187000000    -3.193000000
C     1.828000000    -3.979000000    -2.919000000
C     3.059000000    -3.365000000    -3.236000000
H     3.100000000    -2.453000000    -3.825000000
C     1.786000000    -5.125000000    -2.134000000
H     0.819000000    -5.618000000    -2.067000000
O     0.597000000    -2.364000000    -4.374000000
H     0.364000000    -2.465000000    -2.377000000
C    -2.602000000    -2.662000000    -3.137000000
C    -2.323000000    -2.238000000    -4.579000000
H    -3.231000000    -1.977000000    -5.127000000
H    -1.854000000    -3.034000000    -5.161000000
C    -1.409000000    -1.040000000    -4.432000000
C    -1.958000000     0.210000000    -4.358000000
H    -3.032000000     0.341000000    -4.248000000
C    -0.012000000    -1.162000000    -4.394000000
C     0.796000000    -0.018000000    -4.294000000
H     1.865000000    -0.219000000    -4.292000000
C     0.253000000     1.233000000    -4.228000000
O     1.038000000     2.333000000    -4.026000000
C     1.076000000     2.851000000    -2.699000000
C     2.377000000     2.981000000    -2.086000000
C     3.402000000     2.215000000    -2.605000000
H     3.281000000     1.544000000    -3.452000000
C     2.677000000     3.844000000    -1.054000000
H     1.883000000     4.472000000    -0.658000000
O     0.291000000     4.065000000    -2.673000000
H     0.562000000     2.112000000    -2.066000000
C    -1.176000000     1.342000000    -4.333000000
C    -1.809000000     2.763000000    -4.343000000
H    -2.791000000     2.822000000    -4.818000000
H    -1.174000000     3.537000000    -4.780000000
C    -2.060000000     3.224000000    -2.999000000
C    -1.042000000     3.925000000    -2.314000000
C    -1.337000000     4.401000000    -1.098000000
H    -0.630000000     5.077000000    -0.625000000
C    -2.540000000     4.105000000    -0.472000000
O    -2.584000000     4.399000000     0.874000000
C    -2.301000000     3.267000000     1.747000000
H    -1.699000000     2.496000000     1.243000000
C    -1.433000000     3.823000000     2.880000000
C    -1.279000000     3.040000000     4.026000000
H    -1.872000000     2.135000000     4.129000000
C    -0.832000000     5.054000000     2.834000000
H    -0.951000000     5.676000000     1.951000000
C     0.117000000     5.402000000     3.795000000
O     0.873000000     6.531000000     3.694000000
C     0.423000000     4.544000000     4.830000000
H     1.123000000     4.872000000     5.594000000
C    -0.312000000     3.386000000     5.013000000
O    -0.230000000     2.752000000     6.231000000
C    -0.937000000     1.618000000     6.501000000
C    -0.378000000     0.325000000     6.107000000
H     0.594000000     0.184000000     5.641000000
C    -2.187000000     1.644000000     7.158000000
H    -2.543000000     2.603000000     7.523000000
C    -2.832000000     0.475000000     7.463000000
H    -3.772000000     0.587000000     7.997000000
C    -2.277000000    -0.786000000     7.112000000
H    -2.728000000    -1.729000000     7.409000000
C    -1.122000000    -0.837000000     6.350000000
O    -0.554000000    -2.076000000     6.144000000
C    -0.689000000    -2.768000000     4.922000000
C     0.147000000    -3.896000000     4.764000000
H     0.887000000    -4.137000000     5.522000000
C     0.090000000    -4.641000000     3.568000000
O     1.026000000    -5.707000000     3.369000000
C     1.000000000    -6.455000000     2.236000000
C     1.917000000    -6.162000000     1.196000000
H     2.583000000    -5.307000000     1.289000000
C     0.036000000    -7.557000000     2.081000000
H    -0.685000000    -7.709000000     2.880000000
C     0.115000000    -8.349000000     0.938000000
H    -0.658000000    -9.091000000     0.757000000
C     1.048000000    -8.097000000    -0.025000000
H     1.024000000    -8.728000000    -0.910000000
C     2.017000000    -7.033000000     0.139000000
O     2.984000000    -6.818000000    -0.819000000
C     2.985000000    -5.727000000    -1.676000000
C     4.236000000    -5.152000000    -2.120000000
H     5.159000000    -5.570000000    -1.726000000
C     4.259000000    -3.937000000    -2.795000000
O     5.422000000    -3.272000000    -2.878000000
C     5.638000000    -2.032000000    -3.461000000
C     5.511000000    -0.920000000    -2.650000000
H     5.278000000    -1.067000000    -1.598000000
C     5.807000000    -1.876000000    -4.789000000
H     5.760000000    -2.777000000    -5.395000000
C     6.033000000    -0.593000000    -5.377000000
H     6.184000000    -0.443000000    -6.443000000
C     5.979000000     0.557000000    -4.512000000
H     6.192000000     1.539000000    -4.925000000
C     5.704000000     0.397000000    -3.160000000
O     5.723000000     1.414000000    -2.287000000
C     4.661000000     2.225000000    -1.966000000
C     4.930000000     3.123000000    -0.963000000
H     5.935000000     3.170000000    -0.552000000
C     3.947000000     3.979000000    -0.463000000
O     4.097000000     4.714000000     0.696000000
C     3.400000000     5.795000000     1.077000000
C     3.726000000     7.026000000     0.563000000
H     4.334000000     7.078000000    -0.337000000
C     3.171000000     8.160000000     1.173000000
H     3.447000000     9.155000000     0.834000000
C     2.229000000     8.006000000     2.230000000
H     1.777000000     8.932000000     2.577000000
C     1.835000000     6.722000000     2.693000000
C     2.523000000     5.656000000     2.148000000
H     2.381000000     4.696000000     2.638000000
C     0.968000000    -1.248000000     2.153000000
H     0.840000000    -1.566000000     3.184000000
C    -0.057000000    -0.519000000     1.467000000
H    -1.018000000    -0.222000000     1.880000000
C     0.031000000    -0.343000000     0.102000000
C    -1.178000000     0.167000000    -0.674000000
H    -0.947000000     0.478000000    -1.695000000
H    -1.878000000    -0.668000000    -0.743000000
H    -1.658000000     1.023000000    -0.197000000
C     1.199000000    -0.800000000    -0.549000000
H     1.314000000    -0.716000000    -1.627000000
C     2.289000000    -1.251000000     0.165000000
H     3.185000000    -1.573000000    -0.360000000
C     2.162000000    -1.589000000     1.500000000
C     3.266000000    -2.303000000     2.305000000
O     4.249000000    -2.724000000     1.725000000
O     3.275000000    -2.258000000     3.509000000
O     8.246000000    -1.043000000    -0.695000000
H     8.632000000    -0.904000000     0.170000000
H     7.614000000    -1.749000000    -0.564000000
O     5.414000000    -0.754000000     3.652000000
H     4.670000000    -1.199000000     3.245000000
H     5.064000000    -0.402000000     4.470000000
O     8.715000000     0.393000000     4.233000000
H     8.315000000    -0.099000000     3.516000000
H     9.637000000     0.134000000     4.215000000
O     5.673000000    -0.824000000     6.605000000
H     5.096000000    -0.529000000     7.310000000
H     6.336000000    -0.138000000     6.537000000
O     2.039000000     1.711000000     2.164000000
H     1.500000000     1.012000000     1.796000000
H     2.886000000     1.616000000     1.728000000
O     5.865000000    -3.371000000     5.161000000
H     5.635000000    -2.559000000     5.612000000
H     5.841000000    -3.143000000     4.231000000
O     5.202000000    -5.393000000     1.887000000
H     5.126000000    -5.601000000     2.818000000
H     4.936000000    -4.476000000     1.824000000
O     3.156000000     1.782000000     4.745000000
H     2.627000000     1.803000000     3.948000000
H     3.065000000     0.886000000     5.069000000
O     4.799000000    -8.139000000     0.964000000
H     5.416000000    -7.733000000     1.573000000
H     4.310000000    -7.404000000     0.593000000
O     7.383000000    -5.720000000     0.105000000
H     7.846000000    -6.399000000     0.595000000
H     6.691000000    -5.426000000     0.699000000
O     4.486000000     1.028000000     1.372000000
H     5.263000000     1.316000000     0.894000000
H     4.830000000     0.499000000     2.092000000
O     3.290000000    -4.107000000     5.502000000
H     4.243000000    -4.170000000     5.428000000
H     3.042000000    -3.453000000     4.848000000
O     6.627000000    -6.007000000     5.698000000
H     6.484000000    -5.174000000     5.250000000
H     7.162000000    -5.781000000     6.459000000
O     7.566000000    -1.682000000     2.228000000
H     7.121000000    -2.058000000     1.469000000
H     6.866000000    -1.276000000     2.739000000
O     6.325000000    -2.838000000     0.157000000
H     6.267000000    -3.642000000    -0.359000000
H     5.490000000    -2.792000000     0.623000000
O     3.342000000    -4.490000000     8.025000000
H     3.252000000    -4.489000000     7.071000000
H     2.627000000    -5.049000000     8.331000000
O     2.868000000    -0.741000000     5.710000000
H     3.100000000    -0.915000000     6.622000000
H     2.716000000    -1.607000000     5.331000000
O     5.430000000     3.169000000     4.877000000
H     5.646000000     3.735000000     4.135000000
H     4.682000000     2.653000000     4.575000000
O     1.745000000    -6.684000000     5.772000000
H     1.764000000    -7.040000000     4.884000000
H     2.446000000    -6.033000000     5.784000000
