218
-1469.16715
C    -0.135000000    -4.004000000     3.449000000
H    -0.027000000    -4.754000000     2.670000000
C    -1.205000000    -3.099000000     3.470000000
C    -1.391000000    -2.324000000     4.620000000
H    -2.255000000    -1.665000000     4.651000000
C    -2.215000000    -2.954000000     2.370000000
O    -2.302000000    -4.145000000     1.543000000
H    -1.743000000    -2.197000000     1.727000000
O    -3.484000000    -2.500000000     2.756000000
C    -4.013000000    -1.520000000     1.955000000
C    -3.747000000    -0.209000000     2.331000000
H    -3.328000000    -0.100000000     3.328000000
C    -4.074000000     0.864000000     1.529000000
O    -3.826000000     2.103000000     1.994000000
C    -4.770000000     0.605000000     0.361000000
C    -5.187000000     1.698000000    -0.545000000
H    -6.035000000     1.434000000    -1.181000000
C    -4.088000000     2.266000000    -1.364000000
C    -3.923000000     1.742000000    -2.664000000
H    -4.624000000     1.049000000    -3.123000000
H    -5.691000000     2.470000000     0.040000000
C    -4.915000000    -0.733000000    -0.064000000
H    -5.307000000    -0.957000000    -1.053000000
C    -4.513000000    -1.774000000     0.702000000
C    -4.665000000    -3.161000000     0.141000000
H    -5.571000000    -3.272000000    -0.459000000
H    -4.748000000    -3.944000000     0.899000000
C    -3.337000000    -3.526000000    -0.538000000
C    -3.134000000    -3.318000000    -1.900000000
H    -3.881000000    -2.715000000    -2.411000000
C    -2.323000000    -4.083000000     0.217000000
C    -1.127000000    -4.540000000    -0.362000000
H    -0.307000000    -4.918000000     0.243000000
C    -0.868000000    -4.267000000    -1.711000000
O     0.432000000    -4.427000000    -2.171000000
C     1.201000000    -3.185000000    -2.420000000
C     2.692000000    -3.380000000    -1.992000000
C     3.655000000    -2.462000000    -2.479000000
H     3.465000000    -1.729000000    -3.259000000
C     2.967000000    -4.345000000    -1.061000000
H     2.208000000    -5.067000000    -0.771000000
O     1.120000000    -2.705000000    -3.784000000
H     0.852000000    -2.452000000    -1.678000000
C    -1.872000000    -3.684000000    -2.505000000
C    -1.627000000    -3.410000000    -3.978000000
H    -2.585000000    -3.556000000    -4.482000000
H    -0.953000000    -4.104000000    -4.484000000
C    -1.163000000    -2.014000000    -4.201000000
C    -2.040000000    -0.982000000    -4.356000000
H    -3.099000000    -1.228000000    -4.372000000
C     0.179000000    -1.784000000    -4.115000000
C     0.617000000    -0.525000000    -4.365000000
H     1.687000000    -0.332000000    -4.329000000
C    -0.226000000     0.528000000    -4.586000000
O     0.409000000     1.785000000    -4.736000000
C     0.385000000     2.573000000    -3.509000000
C     1.658000000     3.294000000    -3.325000000
C     2.892000000     2.764000000    -3.546000000
H     2.972000000     1.870000000    -4.160000000
C     1.536000000     4.523000000    -2.706000000
H     0.615000000     5.034000000    -2.437000000
O    -0.785000000     3.432000000    -3.572000000
H     0.403000000     1.824000000    -2.704000000
C    -1.622000000     0.322000000    -4.610000000
C    -2.633000000     1.441000000    -4.842000000
H    -3.504000000     0.917000000    -5.240000000
H    -2.234000000     2.106000000    -5.611000000
C    -2.871000000     2.129000000    -3.489000000
C    -1.929000000     3.042000000    -2.918000000
C    -2.127000000     3.685000000    -1.673000000
H    -1.432000000     4.426000000    -1.284000000
C    -3.209000000     3.274000000    -0.911000000
O    -3.233000000     3.691000000     0.445000000
C    -2.674000000     2.759000000     1.422000000
H    -2.013000000     2.098000000     0.843000000
C    -1.780000000     3.417000000     2.463000000
C    -1.560000000     2.836000000     3.724000000
H    -2.182000000     1.971000000     3.941000000
C    -1.012000000     4.476000000     2.088000000
H    -1.068000000     4.917000000     1.097000000
C    -0.077000000     5.008000000     3.001000000
O     0.504000000     6.193000000     2.684000000
C    -0.066000000     4.580000000     4.307000000
H     0.488000000     5.021000000     5.132000000
C    -0.752000000     3.442000000     4.714000000
O    -0.615000000     2.951000000     6.061000000
C    -1.267000000     1.827000000     6.401000000
C    -0.531000000     0.651000000     6.446000000
H     0.500000000     0.597000000     6.107000000
C    -2.584000000     1.911000000     6.925000000
H    -3.093000000     2.866000000     6.818000000
C    -3.252000000     0.791000000     7.362000000
H    -4.310000000     0.810000000     7.612000000
C    -2.545000000    -0.457000000     7.352000000
H    -3.053000000    -1.372000000     7.646000000
C    -1.221000000    -0.470000000     6.886000000
O    -0.621000000    -1.677000000     6.838000000
C    -0.487000000    -2.368000000     5.600000000
C     0.630000000    -3.227000000     5.556000000
H     1.349000000    -3.297000000     6.368000000
C     0.799000000    -3.949000000     4.441000000
O     1.928000000    -4.752000000     4.342000000
C     2.330000000    -5.578000000     3.288000000
C     3.240000000    -5.080000000     2.302000000
H     3.378000000    -4.002000000     2.295000000
C     1.970000000    -6.977000000     3.236000000
H     1.447000000    -7.480000000     4.046000000
C     2.421000000    -7.787000000     2.240000000
H     2.290000000    -8.866000000     2.283000000
C     3.314000000    -7.255000000     1.327000000
H     3.696000000    -7.881000000     0.525000000
C     3.670000000    -5.915000000     1.357000000
O     4.523000000    -5.443000000     0.404000000
C     4.201000000    -4.439000000    -0.497000000
C     5.235000000    -3.555000000    -1.006000000
H     6.233000000    -3.685000000    -0.596000000
C     4.946000000    -2.605000000    -2.003000000
O     5.931000000    -1.775000000    -2.454000000
C     5.932000000    -0.790000000    -3.395000000
C     5.570000000     0.506000000    -2.915000000
H     5.180000000     0.584000000    -1.904000000
C     6.474000000    -0.931000000    -4.653000000
H     6.881000000    -1.888000000    -4.966000000
C     6.574000000     0.180000000    -5.511000000
H     7.009000000     0.027000000    -6.495000000
C     6.045000000     1.403000000    -5.103000000
H     6.112000000     2.315000000    -5.691000000
C     5.551000000     1.593000000    -3.815000000
O     5.315000000     2.857000000    -3.379000000
C     4.078000000     3.384000000    -3.105000000
C     3.939000000     4.535000000    -2.407000000
H     4.803000000     5.078000000    -2.031000000
C     2.695000000     5.067000000    -2.154000000
O     2.639000000     6.337000000    -1.612000000
C     1.671000000     6.805000000    -0.758000000
C     1.121000000     8.073000000    -1.028000000
H     1.302000000     8.535000000    -1.995000000
C     0.144000000     8.572000000    -0.183000000
H    -0.455000000     9.427000000    -0.484000000
C    -0.144000000     7.889000000     1.009000000
H    -0.951000000     8.143000000     1.691000000
C     0.597000000     6.696000000     1.401000000
C     1.465000000     6.168000000     0.468000000
H     2.112000000     5.329000000     0.710000000
C     1.078000000    -0.305000000     2.341000000
H     0.986000000    -0.362000000     3.422000000
C    -0.121000000    -0.218000000     1.583000000
H    -1.043000000     0.038000000     2.099000000
C    -0.060000000    -0.303000000     0.202000000
C    -1.276000000    -0.187000000    -0.720000000
H    -2.177000000     0.158000000    -0.209000000
H    -1.184000000     0.564000000    -1.508000000
H    -1.639000000    -1.119000000    -1.159000000
C     1.186000000    -0.388000000    -0.394000000
H     1.326000000    -0.442000000    -1.471000000
C     2.402000000    -0.570000000     0.267000000
H     3.382000000    -0.723000000    -0.176000000
C     2.288000000    -0.618000000     1.687000000
C     3.516000000    -1.001000000     2.455000000
O     4.555000000    -1.073000000     1.843000000
O     3.533000000    -0.937000000     3.667000000
O     8.539000000    -3.005000000     0.575000000
H     7.828000000    -2.389000000     0.395000000
H     8.776000000    -3.354000000    -0.284000000
O     2.004000000     2.579000000     0.103000000
H     1.238000000     2.880000000    -0.386000000
H     1.640000000     2.079000000     0.834000000
O     7.490000000    -1.122000000     5.519000000
H     7.553000000    -0.373000000     6.111000000
H     7.203000000    -0.746000000     4.687000000
O     3.175000000     1.429000000     4.893000000
H     3.088000000     0.524000000     4.593000000
H     3.957000000     1.755000000     4.447000000
O     7.442000000    -3.746000000     5.800000000
H     7.344000000    -2.864000000     5.441000000
H     6.973000000    -4.308000000     5.184000000
O     5.254000000    -5.876000000     5.701000000
H     5.832000000    -6.114000000     6.425000000
H     5.172000000    -4.925000000     5.762000000
O     9.251000000    -1.337000000     2.884000000
H     8.368000000    -1.614000000     3.129000000
H     9.295000000    -1.488000000     1.939000000
O     5.287000000     1.394000000     7.348000000
H     4.973000000     2.210000000     6.957000000
H     6.222000000     1.376000000     7.146000000
O     8.288000000     3.244000000     3.332000000
H     7.579000000     3.313000000     3.971000000
H     7.853000000     2.980000000     2.521000000
O     7.104000000    -0.811000000     0.508000000
H     7.349000000     0.040000000     0.870000000
H     6.157000000    -0.862000000     0.636000000
O     7.266000000     2.359000000     0.578000000
H     7.786000000     3.107000000     0.285000000
H     6.362000000     2.601000000     0.374000000
O     4.610000000     2.847000000     0.181000000
H     4.628000000     3.717000000    -0.219000000
H     3.699000000     2.565000000     0.098000000
O     6.533000000     0.269000000     3.341000000
H     6.207000000     1.160000000     3.210000000
H     5.824000000    -0.293000000     3.028000000
O     2.025000000     2.550000000     7.319000000
H     1.200000000     2.706000000     6.858000000
H     2.634000000     2.278000000     6.633000000
O     7.590000000    -5.231000000     2.948000000
H     6.832000000    -4.670000000     2.783000000
H     8.203000000    -4.672000000     3.425000000
O     6.375000000    -2.882000000     2.933000000
H     6.546000000    -2.586000000     2.039000000
H     5.666000000    -2.316000000     3.241000000
O     5.079000000     2.755000000     2.988000000
H     4.443000000     3.386000000     3.324000000
H     4.749000000     2.521000000     2.120000000
O     4.055000000    -3.159000000     5.211000000
H     3.503000000    -3.875000000     4.898000000
H     3.899000000    -2.447000000     4.591000000
O     4.161000000    -1.433000000     7.432000000
H     4.205000000    -0.533000000     7.108000000
H     4.433000000    -1.969000000     6.687000000
