218
-1474.68142
C    -1.416000000    -4.272000000     2.808000000
H    -1.549000000    -4.963000000     1.979000000
C    -2.154000000    -3.106000000     2.924000000
C    -2.097000000    -2.343000000     4.151000000
H    -2.659000000    -1.413000000     4.188000000
C    -2.998000000    -2.622000000     1.805000000
O    -3.423000000    -3.725000000     0.940000000
H    -2.314000000    -2.013000000     1.195000000
O    -4.189000000    -1.965000000     2.229000000
C    -4.343000000    -0.679000000     1.629000000
C    -3.875000000     0.443000000     2.379000000
H    -3.445000000     0.304000000     3.368000000
C    -3.823000000     1.678000000     1.734000000
O    -3.364000000     2.830000000     2.362000000
C    -4.469000000     1.799000000     0.470000000
C    -4.581000000     3.133000000    -0.161000000
H    -5.446000000     3.104000000    -0.827000000
C    -3.307000000     3.541000000    -1.010000000
C    -3.263000000     3.189000000    -2.341000000
H    -4.120000000     2.694000000    -2.788000000
H    -4.791000000     3.907000000     0.580000000
C    -4.908000000     0.710000000    -0.285000000
H    -5.408000000     0.853000000    -1.240000000
C    -4.839000000    -0.543000000     0.339000000
C    -5.271000000    -1.877000000    -0.391000000
H    -6.080000000    -1.669000000    -1.095000000
H    -5.749000000    -2.595000000     0.278000000
C    -4.197000000    -2.530000000    -1.129000000
C    -3.915000000    -2.099000000    -2.424000000
H    -4.624000000    -1.449000000    -2.930000000
C    -3.365000000    -3.422000000    -0.433000000
C    -2.231000000    -3.792000000    -1.091000000
H    -1.532000000    -4.445000000    -0.574000000
C    -1.912000000    -3.358000000    -2.412000000
O    -0.733000000    -3.795000000    -2.890000000
C     0.231000000    -2.766000000    -3.124000000
C     1.592000000    -3.299000000    -2.618000000
C     2.724000000    -3.213000000    -3.453000000
H     2.690000000    -2.798000000    -4.457000000
C     1.815000000    -3.784000000    -1.340000000
H     1.035000000    -3.810000000    -0.583000000
O     0.281000000    -2.309000000    -4.395000000
H    -0.001000000    -1.944000000    -2.431000000
C    -2.819000000    -2.574000000    -3.133000000
C    -2.536000000    -2.159000000    -4.597000000
H    -3.452000000    -1.983000000    -5.165000000
H    -2.028000000    -2.995000000    -5.083000000
C    -1.679000000    -0.944000000    -4.656000000
C    -2.196000000     0.349000000    -4.614000000
H    -3.266000000     0.445000000    -4.447000000
C    -0.334000000    -1.086000000    -4.731000000
C     0.453000000     0.057000000    -4.796000000
H     1.527000000    -0.035000000    -4.656000000
C    -0.029000000     1.335000000    -4.829000000
O     0.821000000     2.370000000    -4.588000000
C     0.962000000     2.841000000    -3.195000000
C     2.416000000     2.906000000    -2.800000000
C     3.401000000     2.093000000    -3.340000000
H     3.114000000     1.268000000    -3.987000000
C     2.768000000     3.775000000    -1.742000000
H     2.010000000     4.395000000    -1.271000000
O     0.288000000     4.096000000    -3.163000000
H     0.444000000     2.143000000    -2.521000000
C    -1.435000000     1.513000000    -4.730000000
C    -2.084000000     2.836000000    -4.477000000
H    -3.131000000     2.746000000    -4.773000000
H    -1.544000000     3.598000000    -5.044000000
C    -2.113000000     3.346000000    -3.060000000
C    -0.986000000     3.994000000    -2.470000000
C    -1.020000000     4.315000000    -1.099000000
H    -0.041000000     4.519000000    -0.675000000
C    -2.169000000     4.154000000    -0.330000000
O    -2.054000000     4.368000000     1.009000000
C    -2.103000000     3.260000000     1.900000000
H    -1.687000000     2.428000000     1.312000000
C    -1.071000000     3.416000000     3.038000000
C    -1.494000000     3.074000000     4.323000000
H    -2.564000000     2.997000000     4.497000000
C     0.303000000     3.644000000     2.838000000
H     0.688000000     3.955000000     1.870000000
C     1.208000000     3.628000000     3.945000000
O     2.548000000     3.955000000     3.711000000
C     0.782000000     3.262000000     5.199000000
H     1.535000000     3.133000000     5.972000000
C    -0.571000000     3.064000000     5.379000000
O    -1.014000000     2.753000000     6.630000000
C    -1.399000000     1.541000000     7.089000000
C    -0.814000000     0.404000000     6.519000000
H     0.024000000     0.520000000     5.837000000
C    -2.640000000     1.378000000     7.754000000
H    -3.130000000     2.274000000     8.125000000
C    -3.267000000     0.188000000     7.901000000
H    -4.186000000     0.332000000     8.463000000
C    -2.662000000    -0.985000000     7.445000000
H    -3.071000000    -1.981000000     7.589000000
C    -1.483000000    -0.872000000     6.704000000
O    -0.839000000    -1.902000000     6.164000000
C    -1.180000000    -2.683000000     5.074000000
C    -0.407000000    -3.884000000     4.939000000
H     0.183000000    -4.197000000     5.796000000
C    -0.550000000    -4.705000000     3.824000000
O     0.212000000    -5.862000000     3.739000000
C     0.900000000    -6.208000000     2.622000000
C     1.622000000    -5.193000000     2.009000000
H     1.644000000    -4.194000000     2.437000000
C     0.945000000    -7.545000000     2.219000000
H     0.654000000    -8.378000000     2.854000000
C     1.707000000    -7.861000000     1.054000000
H     1.792000000    -8.887000000     0.705000000
C     2.482000000    -6.830000000     0.462000000
H     3.119000000    -7.024000000    -0.397000000
C     2.451000000    -5.515000000     0.928000000
O     3.337000000    -4.580000000     0.365000000
C     3.063000000    -4.129000000    -0.884000000
C     4.229000000    -3.941000000    -1.673000000
H     5.208000000    -4.123000000    -1.238000000
C     4.003000000    -3.501000000    -2.989000000
O     5.060000000    -3.326000000    -3.859000000
C     5.337000000    -2.058000000    -4.338000000
C     5.354000000    -0.957000000    -3.490000000
H     5.187000000    -1.028000000    -2.419000000
C     5.716000000    -1.898000000    -5.630000000
H     5.808000000    -2.811000000    -6.213000000
C     6.068000000    -0.646000000    -6.153000000
H     6.429000000    -0.529000000    -7.172000000
C     5.986000000     0.454000000    -5.280000000
H     6.129000000     1.483000000    -5.602000000
C     5.633000000     0.261000000    -3.973000000
O     5.758000000     1.331000000    -3.177000000
C     4.694000000     2.206000000    -2.857000000
C     5.050000000     3.203000000    -1.947000000
H     6.071000000     3.330000000    -1.595000000
C     4.081000000     3.972000000    -1.351000000
O     4.549000000     4.945000000    -0.526000000
C     3.867000000     5.374000000     0.585000000
C     3.522000000     6.756000000     0.718000000
H     3.731000000     7.388000000    -0.142000000
C     2.784000000     7.173000000     1.864000000
H     2.501000000     8.214000000     1.996000000
C     2.457000000     6.212000000     2.859000000
H     1.983000000     6.558000000     3.775000000
C     2.859000000     4.887000000     2.728000000
C     3.627000000     4.506000000     1.641000000
H     4.023000000     3.501000000     1.521000000
C     1.018000000     0.173000000     2.084000000
H     1.047000000     0.339000000     3.158000000
C    -0.171000000     0.163000000     1.352000000
H    -1.097000000     0.305000000     1.903000000
C    -0.222000000     0.087000000    -0.009000000
C    -1.505000000     0.271000000    -0.792000000
H    -1.397000000    -0.100000000    -1.813000000
H    -2.340000000    -0.149000000    -0.226000000
H    -1.593000000     1.351000000    -0.925000000
C     0.978000000     0.050000000    -0.719000000
H     1.035000000     0.139000000    -1.801000000
C     2.173000000     0.110000000    -0.060000000
H     3.095000000    -0.005000000    -0.624000000
C     2.203000000     0.169000000     1.318000000
C     3.551000000     0.214000000     1.978000000
O     4.542000000     0.391000000     1.264000000
O     3.766000000     0.040000000     3.185000000
O     6.961000000     5.581000000     1.006000000
H     6.463000000     4.866000000     0.608000000
H     7.744000000     5.159000000     1.360000000
O     8.036000000     1.801000000     4.253000000
H     7.180000000     1.782000000     3.825000000
H     7.835000000     1.875000000     5.186000000
O     6.778000000    -2.993000000     2.442000000
H     6.405000000    -2.470000000     3.152000000
H     6.639000000    -3.900000000     2.714000000
O     5.938000000     0.197000000     6.623000000
H     5.169000000     0.738000000     6.803000000
H     6.680000000     0.793000000     6.723000000
O     3.078000000     1.042000000     5.505000000
H     3.144000000     0.499000000     4.719000000
H     2.851000000     1.912000000     5.177000000
O     3.318000000     2.495000000     8.626000000
H     3.945000000     2.623000000     7.914000000
H     3.314000000     3.330000000     9.094000000
O     2.113000000     0.029000000     8.511000000
H     1.985000000     0.007000000     7.563000000
H     2.728000000     0.749000000     8.652000000
O     3.406000000    -5.126000000     5.896000000
H     3.061000000    -4.293000000     5.574000000
H     2.986000000    -5.247000000     6.748000000
O     5.854000000    -5.451000000     1.995000000
H     5.013000000    -5.819000000     2.266000000
H     5.639000000    -4.884000000     1.254000000
O     8.703000000    -0.820000000     3.254000000
H     8.756000000    -0.030000000     3.792000000
H     7.767000000    -0.938000000     3.093000000
O     7.869000000    -2.503000000    -1.484000000
H     7.022000000    -2.093000000    -1.308000000
H     8.383000000    -1.818000000    -1.911000000
O     8.329000000     0.338000000    -2.354000000
H     8.438000000     1.056000000    -1.731000000
H     7.747000000     0.690000000    -3.027000000
O     5.302000000     2.322000000     3.921000000
H     4.770000000     1.529000000     3.850000000
H     5.349000000     2.659000000     3.026000000
O     6.288000000     2.324000000     1.347000000
H     7.051000000     2.064000000     0.829000000
H     5.704000000     1.567000000     1.309000000
O     5.754000000    -1.283000000     4.200000000
H     5.686000000    -0.954000000     5.096000000
H     5.106000000    -0.779000000     3.709000000
O     5.848000000    -1.491000000     0.309000000
H     6.227000000    -2.044000000     0.993000000
H     5.370000000    -0.813000000     0.787000000
O     5.181000000     3.238000000     6.472000000
H     6.083000000     3.555000000     6.419000000
H     5.019000000     2.831000000     5.621000000
O     2.806000000    -2.559000000     5.266000000
H     2.290000000    -1.776000000     5.459000000
H     3.605000000    -2.224000000     4.858000000
O     8.446000000    -3.459000000     4.874000000
H     8.444000000    -4.248000000     4.333000000
H     7.619000000    -3.024000000     4.667000000
