218
-1460.29490
C    -2.210000000    -3.640000000     2.061000000
H    -1.805000000    -3.909000000     1.089000000
C    -3.189000000    -2.698000000     2.235000000
C    -3.604000000    -2.318000000     3.543000000
H    -4.383000000    -1.571000000     3.664000000
C    -3.747000000    -1.986000000     0.970000000
O    -4.237000000    -2.852000000    -0.026000000
H    -2.894000000    -1.443000000     0.537000000
O    -4.742000000    -0.974000000     1.268000000
C    -4.630000000     0.247000000     0.650000000
C    -4.196000000     1.218000000     1.553000000
H    -4.128000000     0.965000000     2.608000000
C    -3.809000000     2.495000000     1.043000000
O    -3.085000000     3.391000000     1.796000000
C    -3.962000000     2.745000000    -0.331000000
C    -3.624000000     4.068000000    -0.974000000
H    -4.297000000     4.325000000    -1.795000000
C    -2.180000000     4.023000000    -1.437000000
C    -1.914000000     3.773000000    -2.809000000
H    -2.712000000     3.617000000    -3.530000000
H    -3.784000000     4.829000000    -0.208000000
C    -4.508000000     1.769000000    -1.171000000
H    -4.632000000     2.013000000    -2.223000000
C    -4.838000000     0.473000000    -0.686000000
C    -5.356000000    -0.592000000    -1.627000000
H    -5.788000000    -0.184000000    -2.543000000
H    -6.169000000    -1.149000000    -1.157000000
C    -4.245000000    -1.543000000    -2.055000000
C    -3.733000000    -1.305000000    -3.314000000
H    -4.106000000    -0.574000000    -4.027000000
C    -3.731000000    -2.601000000    -1.241000000
C    -2.689000000    -3.325000000    -1.772000000
H    -2.316000000    -4.089000000    -1.094000000
C    -2.108000000    -3.014000000    -2.953000000
O    -0.892000000    -3.655000000    -3.126000000
C     0.300000000    -2.982000000    -3.080000000
C     1.381000000    -3.854000000    -2.480000000
C     2.691000000    -3.410000000    -2.385000000
H     3.027000000    -2.495000000    -2.865000000
C     1.091000000    -5.125000000    -1.954000000
H     0.050000000    -5.432000000    -2.009000000
O     0.624000000    -2.456000000    -4.393000000
H     0.124000000    -2.177000000    -2.351000000
C    -2.566000000    -1.893000000    -3.727000000
C    -1.998000000    -1.538000000    -5.096000000
H    -2.677000000    -1.057000000    -5.803000000
H    -1.656000000    -2.459000000    -5.573000000
C    -0.874000000    -0.580000000    -4.942000000
C    -1.072000000     0.818000000    -4.956000000
H    -2.083000000     1.211000000    -5.025000000
C     0.406000000    -1.045000000    -4.552000000
C     1.431000000    -0.152000000    -4.242000000
H     2.406000000    -0.435000000    -3.855000000
C     1.220000000     1.204000000    -4.326000000
O     2.275000000     1.970000000    -3.822000000
C     2.223000000     2.561000000    -2.542000000
C     3.537000000     2.589000000    -1.782000000
C     4.436000000     1.550000000    -2.036000000
H     4.335000000     0.827000000    -2.842000000
C     3.838000000     3.605000000    -0.836000000
H     3.183000000     4.445000000    -0.622000000
O     1.684000000     3.884000000    -2.677000000
H     1.579000000     2.004000000    -1.846000000
C    -0.013000000     1.738000000    -4.671000000
C    -0.288000000     3.240000000    -4.652000000
H    -1.050000000     3.479000000    -5.397000000
H     0.583000000     3.811000000    -4.981000000
C    -0.622000000     3.732000000    -3.270000000
C     0.410000000     4.021000000    -2.360000000
C     0.118000000     4.393000000    -1.053000000
H     0.901000000     4.599000000    -0.328000000
C    -1.156000000     4.339000000    -0.519000000
O    -1.234000000     4.589000000     0.802000000
C    -1.589000000     3.471000000     1.629000000
H    -1.305000000     2.567000000     1.070000000
C    -0.840000000     3.515000000     2.937000000
C    -1.315000000     2.607000000     3.880000000
H    -2.316000000     2.207000000     3.737000000
C     0.449000000     4.103000000     3.101000000
H     0.911000000     4.679000000     2.303000000
C     1.225000000     3.894000000     4.229000000
O     2.416000000     4.541000000     4.359000000
C     0.721000000     3.045000000     5.243000000
H     1.226000000     2.889000000     6.193000000
C    -0.511000000     2.356000000     5.015000000
O    -0.947000000     1.541000000     6.111000000
C    -2.125000000     0.945000000     6.195000000
C    -2.168000000    -0.449000000     6.107000000
H    -1.187000000    -0.909000000     6.018000000
C    -3.263000000     1.675000000     6.575000000
H    -3.149000000     2.701000000     6.917000000
C    -4.460000000     1.014000000     6.693000000
H    -5.310000000     1.575000000     7.073000000
C    -4.558000000    -0.363000000     6.421000000
H    -5.464000000    -0.962000000     6.404000000
C    -3.391000000    -1.062000000     6.136000000
O    -3.368000000    -2.451000000     5.890000000
C    -3.085000000    -2.928000000     4.620000000
C    -2.049000000    -3.817000000     4.450000000
H    -1.599000000    -4.215000000     5.356000000
C    -1.626000000    -4.184000000     3.190000000
O    -0.707000000    -5.229000000     3.200000000
C    -0.561000000    -6.182000000     2.280000000
C     0.448000000    -6.060000000     1.273000000
H     1.061000000    -5.162000000     1.278000000
C    -1.406000000    -7.317000000     2.333000000
H    -2.086000000    -7.399000000     3.177000000
C    -1.208000000    -8.343000000     1.413000000
H    -1.827000000    -9.222000000     1.570000000
C    -0.151000000    -8.184000000     0.484000000
H     0.016000000    -9.050000000    -0.151000000
C     0.681000000    -7.069000000     0.379000000
O     1.756000000    -7.054000000    -0.516000000
C     2.039000000    -5.904000000    -1.292000000
C     3.380000000    -5.448000000    -1.245000000
H     4.108000000    -6.057000000    -0.715000000
C     3.691000000    -4.196000000    -1.762000000
O     4.972000000    -3.665000000    -1.630000000
C     5.629000000    -2.733000000    -2.362000000
C     5.978000000    -1.558000000    -1.704000000
H     5.800000000    -1.394000000    -0.645000000
C     5.930000000    -2.926000000    -3.740000000
H     5.571000000    -3.834000000    -4.219000000
C     6.508000000    -1.853000000    -4.429000000
H     6.639000000    -1.913000000    -5.507000000
C     6.682000000    -0.632000000    -3.802000000
H     7.135000000     0.199000000    -4.336000000
C     6.477000000    -0.526000000    -2.415000000
O     6.683000000     0.721000000    -1.694000000
C     5.697000000     1.601000000    -1.398000000
C     5.993000000     2.556000000    -0.445000000
H     6.943000000     2.524000000     0.081000000
C     5.071000000     3.555000000    -0.214000000
O     5.386000000     4.596000000     0.668000000
C     4.525000000     5.166000000     1.516000000
C     4.498000000     6.520000000     1.471000000
H     5.159000000     7.029000000     0.775000000
C     3.747000000     7.272000000     2.380000000
H     3.847000000     8.351000000     2.291000000
C     2.983000000     6.566000000     3.335000000
H     2.310000000     7.091000000     4.008000000
C     3.099000000     5.184000000     3.366000000
C     3.842000000     4.471000000     2.496000000
H     3.973000000     3.406000000     2.674000000
C     0.054000000    -1.493000000     2.918000000
H    -0.240000000    -1.376000000     3.958000000
C    -0.613000000    -0.827000000     1.900000000
H    -1.410000000    -0.133000000     2.152000000
C    -0.153000000    -0.788000000     0.585000000
C    -0.775000000     0.084000000    -0.545000000
H    -0.093000000     0.867000000    -0.884000000
H    -1.099000000    -0.425000000    -1.455000000
H    -1.658000000     0.605000000    -0.168000000
C     1.004000000    -1.471000000     0.243000000
H     1.368000000    -1.454000000    -0.781000000
C     1.708000000    -2.159000000     1.296000000
H     2.677000000    -2.640000000     1.191000000
C     1.195000000    -2.249000000     2.594000000
C     1.922000000    -3.028000000     3.629000000
O     2.812000000    -3.793000000     3.379000000
O     1.649000000    -2.851000000     4.743000000
O     2.343000000     0.883000000     1.928000000
H     2.602000000     0.841000000     2.849000000
H     1.468000000     0.495000000     1.908000000
O     0.119000000    -0.303000000     8.836000000
H     0.399000000    -0.842000000     8.096000000
H     0.242000000     0.598000000     8.535000000
O     6.613000000    -7.919000000     2.959000000
H     7.083000000    -8.093000000     3.775000000
H     5.830000000    -7.440000000     3.231000000
O     1.145000000    -8.303000000     5.528000000
H     0.975000000    -7.361000000     5.518000000
H     0.363000000    -8.691000000     5.136000000
O     4.426000000    -5.952000000     3.527000000
H     3.826000000    -5.206000000     3.509000000
H     5.236000000    -5.599000000     3.895000000
O     1.133000000    -2.334000000     7.175000000
H     2.041000000    -2.450000000     7.456000000
H     1.150000000    -2.507000000     6.233000000
O     0.979000000    -5.506000000     5.900000000
H     1.208000000    -5.117000000     6.744000000
H     0.957000000    -4.766000000     5.293000000
O     4.585000000     1.596000000     4.697000000
H     3.712000000     1.219000000     4.588000000
H     4.904000000     1.227000000     5.521000000
O     5.303000000    -3.245000000     2.119000000
H     4.540000000    -3.728000000     2.437000000
H     5.758000000    -3.866000000     1.550000000
O     7.263000000    -0.844000000     5.262000000
H     6.462000000    -1.340000000     5.093000000
H     7.418000000    -0.951000000     6.200000000
O     3.533000000    -8.819000000     4.709000000
H     2.639000000    -8.755000000     5.047000000
H     3.701000000    -7.963000000     4.315000000
O     5.111000000    -2.477000000     4.793000000
H     5.280000000    -2.726000000     3.884000000
H     4.168000000    -2.598000000     4.903000000
O     2.323000000     0.182000000     4.665000000
H     2.016000000     0.171000000     5.572000000
H     2.275000000    -0.732000000     4.385000000
O     3.771000000    -3.386000000     7.326000000
H     4.183000000    -2.551000000     7.104000000
H     3.909000000    -3.477000000     8.269000000
O     6.782000000    -5.291000000     4.886000000
H     7.596000000    -5.429000000     4.403000000
H     7.031000000    -4.731000000     5.621000000
O     3.829000000    -6.113000000     7.277000000
H     3.925000000    -6.245000000     6.334000000
H     3.697000000    -5.169000000     7.374000000
O     7.316000000    -0.698000000     1.162000000
H     7.671000000    -0.006000000     1.721000000
H     6.370000000    -0.549000000     1.168000000
O    -1.321000000    -3.367000000     7.964000000
H    -1.744000000    -2.981000000     7.197000000
H    -0.408000000    -3.085000000     7.901000000
O     4.788000000    -0.597000000     1.450000000
H     4.767000000    -1.484000000     1.809000000
H     3.888000000    -0.283000000     1.532000000
