218
-1452.59623
C    -2.902000000    -4.452000000     2.157000000
H    -2.933000000    -4.899000000     1.167000000
C    -3.380000000    -3.167000000     2.300000000
C    -3.269000000    -2.537000000     3.555000000
H    -3.464000000    -1.475000000     3.682000000
C    -3.698000000    -2.294000000     1.121000000
O    -4.126000000    -3.029000000     0.001000000
H    -2.805000000    -1.745000000     0.789000000
O    -4.624000000    -1.311000000     1.495000000
C    -4.481000000    -0.051000000     0.937000000
C    -3.915000000     0.947000000     1.739000000
H    -3.740000000     0.611000000     2.758000000
C    -3.745000000     2.218000000     1.189000000
O    -3.140000000     3.136000000     2.055000000
C    -4.092000000     2.556000000    -0.127000000
C    -3.845000000     3.882000000    -0.767000000
H    -4.408000000     3.938000000    -1.701000000
C    -2.390000000     3.992000000    -1.286000000
C    -2.074000000     3.628000000    -2.575000000
H    -2.763000000     3.261000000    -3.331000000
H    -4.049000000     4.699000000    -0.073000000
C    -4.675000000     1.564000000    -0.888000000
H    -4.910000000     1.793000000    -1.924000000
C    -4.819000000     0.231000000    -0.427000000
C    -5.429000000    -0.812000000    -1.295000000
H    -6.225000000    -0.391000000    -1.912000000
H    -5.922000000    -1.483000000    -0.589000000
C    -4.319000000    -1.647000000    -1.967000000
C    -3.810000000    -1.156000000    -3.186000000
H    -4.228000000    -0.299000000    -3.708000000
C    -3.787000000    -2.693000000    -1.309000000
C    -2.652000000    -3.280000000    -1.817000000
H    -2.210000000    -4.064000000    -1.207000000
C    -2.133000000    -2.879000000    -3.084000000
O    -0.979000000    -3.505000000    -3.498000000
C     0.268000000    -2.813000000    -3.270000000
C     1.356000000    -3.698000000    -2.742000000
C     2.600000000    -3.749000000    -3.347000000
H     2.750000000    -3.218000000    -4.283000000
C     1.120000000    -4.458000000    -1.555000000
H     0.115000000    -4.416000000    -1.143000000
O     0.642000000    -2.085000000    -4.454000000
H     0.064000000    -2.117000000    -2.443000000
C    -2.733000000    -1.832000000    -3.752000000
C    -2.133000000    -1.289000000    -5.037000000
H    -2.953000000    -0.836000000    -5.598000000
H    -1.692000000    -2.094000000    -5.628000000
C    -1.032000000    -0.249000000    -4.799000000
C    -1.277000000     1.079000000    -4.735000000
H    -2.295000000     1.430000000    -4.885000000
C     0.276000000    -0.727000000    -4.568000000
C     1.320000000     0.089000000    -4.335000000
H     2.266000000    -0.409000000    -4.140000000
C     1.157000000     1.489000000    -4.420000000
O     2.148000000     2.296000000    -3.860000000
C     2.075000000     2.734000000    -2.446000000
C     3.304000000     2.709000000    -1.707000000
C     4.034000000     1.555000000    -1.738000000
H     3.713000000     0.812000000    -2.464000000
C     3.640000000     3.596000000    -0.710000000
H     3.150000000     4.561000000    -0.604000000
O     1.531000000     4.125000000    -2.439000000
H     1.317000000     2.090000000    -1.978000000
C    -0.175000000     1.990000000    -4.542000000
C    -0.354000000     3.490000000    -4.436000000
H    -1.058000000     3.920000000    -5.151000000
H     0.591000000     3.997000000    -4.644000000
C    -0.782000000     3.854000000    -3.027000000
C     0.233000000     4.287000000    -2.166000000
C    -0.064000000     4.482000000    -0.844000000
H     0.722000000     4.561000000    -0.098000000
C    -1.409000000     4.396000000    -0.473000000
O    -1.590000000     4.440000000     0.870000000
C    -1.698000000     3.301000000     1.733000000
H    -1.421000000     2.436000000     1.113000000
C    -0.679000000     3.319000000     2.904000000
C    -0.821000000     2.318000000     3.890000000
H    -1.599000000     1.562000000     3.818000000
C     0.360000000     4.219000000     2.971000000
H     0.505000000     4.887000000     2.126000000
C     1.135000000     4.247000000     4.084000000
O     2.065000000     5.254000000     4.268000000
C     0.962000000     3.327000000     5.120000000
H     1.473000000     3.514000000     6.061000000
C    -0.015000000     2.330000000     5.001000000
O    -0.265000000     1.491000000     6.086000000
C    -1.488000000     0.768000000     6.231000000
C    -1.569000000    -0.607000000     5.980000000
H    -0.661000000    -1.140000000     5.712000000
C    -2.656000000     1.460000000     6.512000000
H    -2.574000000     2.542000000     6.578000000
C    -3.916000000     0.864000000     6.611000000
H    -4.771000000     1.512000000     6.788000000
C    -3.937000000    -0.513000000     6.439000000
H    -4.938000000    -0.934000000     6.482000000
C    -2.771000000    -1.259000000     6.058000000
O    -2.825000000    -2.587000000     5.928000000
C    -2.820000000    -3.154000000     4.690000000
C    -2.554000000    -4.500000000     4.597000000
H    -2.345000000    -5.086000000     5.489000000
C    -2.481000000    -5.122000000     3.307000000
O    -1.806000000    -6.313000000     3.151000000
C    -1.005000000    -6.663000000     2.052000000
C     0.123000000    -5.951000000     1.737000000
H     0.273000000    -5.063000000     2.345000000
C    -1.383000000    -7.796000000     1.290000000
H    -2.308000000    -8.290000000     1.579000000
C    -0.495000000    -8.264000000     0.379000000
H    -0.754000000    -9.161000000    -0.177000000
C     0.633000000    -7.530000000     0.035000000
H     1.233000000    -7.927000000    -0.780000000
C     0.894000000    -6.350000000     0.684000000
O     2.013000000    -5.652000000     0.338000000
C     2.183000000    -5.133000000    -0.919000000
C     3.453000000    -5.123000000    -1.501000000
H     4.262000000    -5.678000000    -1.034000000
C     3.694000000    -4.383000000    -2.707000000
O     4.979000000    -4.215000000    -3.230000000
C     5.581000000    -2.956000000    -3.203000000
C     5.364000000    -2.010000000    -2.137000000
H     4.744000000    -2.250000000    -1.277000000
C     6.319000000    -2.566000000    -4.367000000
H     6.559000000    -3.361000000    -5.068000000
C     7.056000000    -1.396000000    -4.298000000
H     7.759000000    -1.080000000    -5.064000000
C     6.883000000    -0.527000000    -3.214000000
H     7.582000000     0.303000000    -3.139000000
C     5.938000000    -0.736000000    -2.189000000
O     5.837000000     0.108000000    -1.041000000
C     5.127000000     1.271000000    -0.952000000
C     5.543000000     2.258000000    -0.056000000
H     6.438000000     1.979000000     0.494000000
C     4.756000000     3.380000000     0.069000000
O     5.281000000     4.529000000     0.718000000
C     4.646000000     5.353000000     1.599000000
C     4.725000000     6.760000000     1.485000000
H     5.412000000     7.173000000     0.752000000
C     3.969000000     7.615000000     2.355000000
H     4.261000000     8.662000000     2.372000000
C     3.117000000     7.088000000     3.269000000
H     2.580000000     7.785000000     3.908000000
C     2.983000000     5.703000000     3.361000000
C     3.657000000     4.865000000     2.516000000
H     3.357000000     3.820000000     2.544000000
C     0.590000000    -1.362000000     2.002000000
H     0.392000000    -1.833000000     2.961000000
C    -0.312000000    -0.653000000     1.295000000
H    -1.306000000    -0.393000000     1.650000000
C     0.016000000    -0.227000000    -0.007000000
C    -1.077000000     0.348000000    -0.869000000
H    -0.723000000     1.335000000    -1.173000000
H    -1.242000000    -0.270000000    -1.753000000
H    -2.012000000     0.471000000    -0.318000000
C     1.227000000    -0.489000000    -0.562000000
H     1.377000000    -0.178000000    -1.593000000
C     2.134000000    -1.273000000     0.205000000
H     3.045000000    -1.635000000    -0.266000000
C     1.837000000    -1.705000000     1.488000000
C     2.711000000    -2.688000000     2.190000000
O     3.769000000    -2.955000000     1.697000000
O     2.470000000    -3.022000000     3.344000000
O     8.316000000    -3.738000000     2.365000000
H     7.554000000    -3.803000000     1.789000000
H     8.445000000    -2.797000000     2.487000000
O     2.987000000     0.730000000     2.837000000
H     2.369000000     0.663000000     2.109000000
H     3.488000000    -0.085000000     2.802000000
O     1.680000000    -2.304000000     7.982000000
H     1.997000000    -2.292000000     7.079000000
H     1.201000000    -3.130000000     8.057000000
O     7.024000000    -6.426000000     0.966000000
H     6.779000000    -5.715000000     1.557000000
H     7.086000000    -6.011000000     0.105000000
O     3.811000000    -4.246000000     8.264000000
H     3.821000000    -4.912000000     8.952000000
H     3.339000000    -3.509000000     8.651000000
O     3.888000000    -5.561000000     3.067000000
H     4.193000000    -5.839000000     2.203000000
H     3.489000000    -4.704000000     2.916000000
O     3.989000000    -8.309000000     3.601000000
H     4.119000000    -7.381000000     3.404000000
H     3.068000000    -8.373000000     3.854000000
O     8.264000000    -1.008000000     3.038000000
H     8.474000000    -0.676000000     2.165000000
H     7.313000000    -1.115000000     3.031000000
O     0.513000000    -4.689000000     7.575000000
H    -0.100000000    -5.421000000     7.637000000
H     0.778000000    -4.676000000     6.655000000
O     1.553000000    -4.793000000     5.092000000
H     1.733000000    -4.037000000     4.534000000
H     2.231000000    -5.428000000     4.861000000
O     2.926000000     0.892000000     5.634000000
H     2.458000000     0.917000000     4.799000000
H     3.028000000    -0.041000000     5.823000000
O     8.228000000    -1.077000000     0.277000000
H     8.187000000    -1.269000000    -0.660000000
H     8.954000000    -0.459000000     0.363000000
O     6.078000000    -3.652000000     0.802000000
H     6.384000000    -2.852000000     0.374000000
H     5.218000000    -3.422000000     1.153000000
O     3.151000000    -1.898000000     5.617000000
H     3.931000000    -2.349000000     5.939000000
H     2.957000000    -2.322000000     4.781000000
O     6.083000000     2.071000000     3.991000000
H     5.480000000     2.501000000     4.597000000
H     5.591000000     1.323000000     3.653000000
O     4.365000000    -5.723000000     5.985000000
H     3.936000000    -5.054000000     6.517000000
H     4.574000000    -5.279000000     5.163000000
O     5.747000000    -3.281000000     6.001000000
H     5.803000000    -2.958000000     6.900000000
H     6.476000000    -3.897000000     5.923000000
O     3.554000000    -8.255000000     6.588000000
H     2.654000000    -8.144000000     6.894000000
H     3.863000000    -7.364000000     6.426000000
O     5.697000000    -1.611000000     3.476000000
H     5.070000000    -2.062000000     2.911000000
H     5.830000000    -2.209000000     4.212000000
