218
-1470.73207
C    -2.653000000    -3.796000000     2.576000000
H    -2.577000000    -4.238000000     1.586000000
C    -3.317000000    -2.581000000     2.595000000
C    -3.317000000    -1.817000000     3.764000000
H    -3.709000000    -0.805000000     3.810000000
C    -3.747000000    -2.005000000     1.339000000
O    -4.270000000    -2.948000000     0.307000000
H    -2.842000000    -1.545000000     0.915000000
O    -4.718000000    -0.961000000     1.535000000
C    -4.564000000     0.244000000     0.881000000
C    -4.157000000     1.322000000     1.625000000
H    -3.976000000     1.230000000     2.692000000
C    -3.766000000     2.490000000     1.033000000
O    -3.058000000     3.383000000     1.743000000
C    -3.956000000     2.550000000    -0.310000000
C    -3.715000000     3.917000000    -0.913000000
H    -4.382000000     4.185000000    -1.735000000
C    -2.252000000     4.025000000    -1.480000000
C    -2.043000000     3.572000000    -2.772000000
H    -2.826000000     3.265000000    -3.461000000
H    -3.748000000     4.778000000    -0.242000000
C    -4.448000000     1.512000000    -1.097000000
H    -4.490000000     1.590000000    -2.180000000
C    -4.708000000     0.304000000    -0.507000000
C    -5.317000000    -0.765000000    -1.428000000
H    -5.698000000    -0.375000000    -2.375000000
H    -6.111000000    -1.276000000    -0.879000000
C    -4.229000000    -1.732000000    -1.777000000
C    -3.527000000    -1.562000000    -2.983000000
H    -3.742000000    -0.611000000    -3.464000000
C    -3.753000000    -2.775000000    -0.980000000
C    -2.681000000    -3.548000000    -1.351000000
H    -2.248000000    -4.314000000    -0.712000000
C    -1.959000000    -3.333000000    -2.561000000
O    -0.832000000    -4.008000000    -2.874000000
C     0.390000000    -3.295000000    -2.810000000
C     1.511000000    -4.047000000    -2.191000000
C     2.832000000    -3.780000000    -2.609000000
H     2.977000000    -3.058000000    -3.409000000
C     1.234000000    -4.960000000    -1.159000000
H     0.226000000    -5.150000000    -0.798000000
O     0.744000000    -2.750000000    -4.133000000
H     0.231000000    -2.433000000    -2.145000000
C    -2.442000000    -2.287000000    -3.421000000
C    -1.865000000    -2.003000000    -4.780000000
H    -2.638000000    -1.657000000    -5.468000000
H    -1.419000000    -2.918000000    -5.175000000
C    -0.766000000    -0.976000000    -4.629000000
C    -1.027000000     0.411000000    -4.687000000
H    -2.033000000     0.821000000    -4.715000000
C     0.488000000    -1.391000000    -4.331000000
C     1.524000000    -0.522000000    -4.178000000
H     2.487000000    -0.892000000    -3.834000000
C     1.267000000     0.837000000    -4.328000000
O     2.315000000     1.717000000    -4.084000000
C     2.231000000     2.273000000    -2.755000000
C     3.643000000     2.258000000    -2.117000000
C     4.518000000     1.225000000    -2.328000000
H     4.197000000     0.371000000    -2.919000000
C     3.877000000     3.055000000    -1.014000000
H     3.027000000     3.662000000    -0.713000000
O     1.676000000     3.654000000    -2.690000000
H     1.613000000     1.622000000    -2.119000000
C     0.005000000     1.306000000    -4.573000000
C    -0.288000000     2.772000000    -4.638000000
H    -1.117000000     2.899000000    -5.337000000
H     0.584000000     3.294000000    -5.037000000
C    -0.729000000     3.372000000    -3.254000000
C     0.326000000     3.818000000    -2.410000000
C     0.113000000     4.341000000    -1.145000000
H     0.937000000     4.761000000    -0.573000000
C    -1.209000000     4.463000000    -0.634000000
O    -1.361000000     4.822000000     0.646000000
C    -1.659000000     3.682000000     1.502000000
H    -1.096000000     2.886000000     0.992000000
C    -0.912000000     3.922000000     2.780000000
C    -1.374000000     3.344000000     3.928000000
H    -2.330000000     2.834000000     3.833000000
C     0.352000000     4.515000000     2.845000000
H     0.731000000     4.994000000     1.946000000
C     1.009000000     4.765000000     4.049000000
O     2.128000000     5.599000000     4.164000000
C     0.535000000     4.112000000     5.181000000
H     0.949000000     4.342000000     6.160000000
C    -0.648000000     3.372000000     5.140000000
O    -1.112000000     2.789000000     6.289000000
C    -2.187000000     1.952000000     6.281000000
C    -1.962000000     0.627000000     6.361000000
H    -0.930000000     0.294000000     6.284000000
C    -3.477000000     2.471000000     6.317000000
H    -3.564000000     3.547000000     6.189000000
C    -4.552000000     1.576000000     6.306000000
H    -5.554000000     1.994000000     6.258000000
C    -4.378000000     0.223000000     6.344000000
H    -5.226000000    -0.454000000     6.272000000
C    -3.034000000    -0.308000000     6.411000000
O    -2.859000000    -1.652000000     6.221000000
C    -2.736000000    -2.317000000     4.961000000
C    -2.040000000    -3.558000000     4.948000000
H    -1.515000000    -4.008000000     5.786000000
C    -1.972000000    -4.247000000     3.735000000
O    -1.306000000    -5.461000000     3.727000000
C    -0.835000000    -6.106000000     2.591000000
C     0.346000000    -5.897000000     2.006000000
H     0.922000000    -5.015000000     2.275000000
C    -1.723000000    -7.047000000     2.105000000
H    -2.731000000    -7.164000000     2.494000000
C    -1.271000000    -7.930000000     1.109000000
H    -1.871000000    -8.755000000     0.732000000
C     0.002000000    -7.755000000     0.566000000
H     0.333000000    -8.409000000    -0.236000000
C     0.813000000    -6.733000000     1.006000000
O     2.088000000    -6.599000000     0.428000000
C     2.332000000    -5.667000000    -0.603000000
C     3.599000000    -5.454000000    -1.095000000
H     4.435000000    -6.037000000    -0.717000000
C     3.861000000    -4.492000000    -2.074000000
O     5.158000000    -4.334000000    -2.481000000
C     5.631000000    -3.188000000    -3.005000000
C     5.793000000    -2.097000000    -2.185000000
H     5.603000000    -2.249000000    -1.126000000
C     6.026000000    -3.171000000    -4.357000000
H     5.794000000    -4.056000000    -4.945000000
C     6.528000000    -2.035000000    -4.873000000
H     6.956000000    -2.126000000    -5.868000000
C     6.660000000    -0.868000000    -4.076000000
H     7.061000000     0.036000000    -4.528000000
C     6.295000000    -0.953000000    -2.738000000
O     6.581000000     0.139000000    -1.934000000
C     5.716000000     1.150000000    -1.646000000
C     5.983000000     2.003000000    -0.553000000
H     6.926000000     1.873000000    -0.028000000
C     5.007000000     2.977000000    -0.260000000
O     5.137000000     3.813000000     0.839000000
C     4.353000000     4.826000000     1.354000000
C     4.484000000     6.089000000     0.807000000
H     5.021000000     6.287000000    -0.117000000
C     3.771000000     7.148000000     1.315000000
H     3.650000000     8.114000000     0.832000000
C     3.023000000     6.985000000     2.482000000
H     2.589000000     7.810000000     3.041000000
C     2.952000000     5.737000000     3.093000000
C     3.473000000     4.631000000     2.424000000
H     3.436000000     3.655000000     2.901000000
C     0.675000000    -2.042000000     2.185000000
H     0.478000000    -2.611000000     3.090000000
C    -0.250000000    -1.082000000     1.720000000
H    -1.174000000    -0.958000000     2.278000000
C     0.041000000    -0.470000000     0.468000000
C    -0.936000000     0.428000000    -0.145000000
H    -0.572000000     1.449000000    -0.273000000
H    -1.420000000    -0.001000000    -1.025000000
H    -1.850000000     0.529000000     0.445000000
C     1.267000000    -0.698000000    -0.093000000
H     1.457000000    -0.370000000    -1.111000000
C     2.198000000    -1.525000000     0.465000000
H     3.171000000    -1.585000000    -0.017000000
C     1.973000000    -2.227000000     1.620000000
C     3.028000000    -2.960000000     2.323000000
O     4.202000000    -3.046000000     1.894000000
O     2.867000000    -3.383000000     3.457000000
O     3.020000000     1.270000000     1.927000000
H     2.784000000     1.599000000     2.794000000
H     2.259000000     0.762000000     1.647000000
O     3.909000000    -9.306000000     2.021000000
H     4.532000000    -8.967000000     1.379000000
H     3.512000000    -8.525000000     2.405000000
O     6.494000000    -6.136000000     4.822000000
H     5.968000000    -5.382000000     4.554000000
H     6.377000000    -6.183000000     5.771000000
O     5.888000000    -4.845000000     1.141000000
H     5.152000000    -4.285000000     1.390000000
H     6.271000000    -4.412000000     0.378000000
O     3.792000000    -0.464000000     6.804000000
H     3.970000000    -0.836000000     7.667000000
H     3.392000000     0.386000000     6.987000000
O     1.780000000    -1.734000000     5.382000000
H     2.456000000    -1.368000000     5.951000000
H     2.247000000    -2.356000000     4.824000000
O     3.771000000    -5.803000000     3.121000000
H     4.266000000    -5.679000000     2.311000000
H     3.539000000    -4.916000000     3.398000000
O     5.160000000     1.978000000     4.620000000
H     4.915000000     1.079000000     4.402000000
H     4.330000000     2.455000000     4.640000000
O     8.242000000    -2.771000000     2.706000000
H     7.635000000    -3.235000000     3.282000000
H     9.099000000    -3.146000000     2.908000000
O     6.324000000    -0.537000000     5.739000000
H     5.494000000    -0.496000000     6.215000000
H     6.383000000    -1.444000000     5.440000000
O     5.933000000    -7.598000000     1.166000000
H     6.582000000    -7.773000000     1.847000000
H     5.993000000    -6.654000000     1.016000000
O     5.738000000    -2.916000000     4.090000000
H     5.213000000    -2.951000000     3.291000000
H     5.137000000    -3.184000000     4.785000000
O     1.948000000     0.950000000     4.476000000
H     1.968000000     1.357000000     5.342000000
H     1.821000000     0.018000000     4.652000000
O     3.702000000    -4.045000000     5.911000000
H     3.495000000    -4.974000000     6.007000000
H     3.215000000    -3.770000000     5.134000000
O     2.615000000    -6.338000000     7.140000000
H     2.629000000    -6.751000000     6.277000000
H     2.046000000    -6.900000000     7.665000000
O     1.105000000    -3.599000000     7.083000000
H     2.058000000    -3.614000000     6.990000000
H     0.833000000    -2.804000000     6.626000000
O     5.454000000    -0.034000000     1.938000000
H     5.091000000     0.852000000     1.914000000
H     4.688000000    -0.605000000     1.989000000
O     2.169000000    -7.586000000     4.556000000
H     1.385000000    -7.762000000     4.036000000
H     2.708000000    -7.028000000     3.996000000
O     8.159000000    -0.525000000     1.181000000
H     7.207000000    -0.427000000     1.183000000
H     8.303000000    -1.464000000     1.298000000
