218
-1471.63494
C    -1.836000000    -3.643000000     2.661000000
H    -1.556000000    -3.984000000     1.668000000
C    -2.746000000    -2.556000000     2.733000000
C    -2.959000000    -1.904000000     3.942000000
H    -3.538000000    -0.984000000     3.954000000
C    -3.395000000    -2.128000000     1.439000000
O    -3.640000000    -3.160000000     0.402000000
H    -2.580000000    -1.462000000     1.120000000
O    -4.575000000    -1.338000000     1.713000000
C    -4.655000000    -0.164000000     0.991000000
C    -4.183000000     0.892000000     1.628000000
H    -3.883000000     0.815000000     2.670000000
C    -4.023000000     2.076000000     0.970000000
O    -3.485000000     3.094000000     1.652000000
C    -4.264000000     2.229000000    -0.366000000
C    -4.061000000     3.504000000    -1.129000000
H    -4.657000000     3.457000000    -2.043000000
C    -2.598000000     3.646000000    -1.618000000
C    -2.255000000     3.178000000    -2.914000000
H    -3.006000000     2.755000000    -3.577000000
H    -4.311000000     4.371000000    -0.514000000
C    -4.715000000     1.102000000    -0.980000000
H    -4.994000000     1.190000000    -2.028000000
C    -4.934000000    -0.114000000    -0.374000000
C    -5.245000000    -1.358000000    -1.177000000
H    -5.902000000    -1.084000000    -2.005000000
H    -5.889000000    -2.010000000    -0.583000000
C    -3.937000000    -2.001000000    -1.698000000
C    -3.491000000    -1.701000000    -2.986000000
H    -3.929000000    -0.876000000    -3.542000000
C    -3.227000000    -2.836000000    -0.881000000
C    -2.018000000    -3.507000000    -1.353000000
H    -1.440000000    -4.083000000    -0.635000000
C    -1.625000000    -3.318000000    -2.716000000
O    -0.403000000    -3.858000000    -3.211000000
C     0.723000000    -3.069000000    -2.947000000
C     1.858000000    -3.773000000    -2.220000000
C     3.141000000    -3.263000000    -2.315000000
H     3.350000000    -2.454000000    -3.010000000
C     1.584000000    -4.917000000    -1.455000000
H     0.607000000    -5.386000000    -1.382000000
O     1.053000000    -2.502000000    -4.189000000
H     0.447000000    -2.193000000    -2.341000000
C    -2.333000000    -2.371000000    -3.446000000
C    -1.766000000    -1.986000000    -4.810000000
H    -2.607000000    -1.624000000    -5.405000000
H    -1.364000000    -2.840000000    -5.358000000
C    -0.714000000    -0.913000000    -4.696000000
C    -1.201000000     0.396000000    -4.916000000
H    -2.270000000     0.542000000    -5.048000000
C     0.639000000    -1.245000000    -4.469000000
C     1.534000000    -0.155000000    -4.381000000
H     2.550000000    -0.361000000    -4.056000000
C     1.111000000     1.151000000    -4.608000000
O     2.025000000     2.164000000    -4.352000000
C     1.976000000     2.622000000    -2.983000000
C     3.370000000     2.742000000    -2.433000000
C     4.379000000     1.840000000    -2.779000000
H     4.148000000     1.117000000    -3.558000000
C     3.640000000     3.726000000    -1.443000000
H     2.903000000     4.441000000    -1.085000000
O     1.345000000     3.869000000    -2.852000000
H     1.426000000     1.834000000    -2.450000000
C    -0.239000000     1.411000000    -4.890000000
C    -0.666000000     2.885000000    -4.770000000
H    -1.579000000     3.055000000    -5.345000000
H     0.103000000     3.524000000    -5.209000000
C    -0.943000000     3.313000000    -3.368000000
C     0.037000000     3.858000000    -2.517000000
C    -0.337000000     4.332000000    -1.224000000
H     0.439000000     4.597000000    -0.510000000
C    -1.633000000     4.224000000    -0.774000000
O    -1.935000000     4.456000000     0.577000000
C    -2.056000000     3.278000000     1.361000000
H    -1.713000000     2.416000000     0.771000000
C    -1.266000000     3.455000000     2.692000000
C    -1.867000000     3.066000000     3.881000000
H    -2.908000000     2.753000000     3.884000000
C     0.095000000     3.795000000     2.735000000
H     0.552000000     3.926000000     1.758000000
C     0.771000000     3.941000000     3.897000000
O     2.079000000     4.385000000     3.840000000
C     0.182000000     3.611000000     5.100000000
H     0.642000000     3.677000000     6.082000000
C    -1.169000000     3.144000000     5.035000000
O    -1.851000000     2.877000000     6.217000000
C    -2.654000000     1.815000000     6.494000000
C    -2.280000000     0.556000000     6.120000000
H    -1.277000000     0.364000000     5.748000000
C    -3.823000000     2.046000000     7.287000000
H    -4.063000000     3.087000000     7.485000000
C    -4.603000000     0.898000000     7.632000000
H    -5.417000000     0.955000000     8.350000000
C    -4.242000000    -0.324000000     7.133000000
H    -4.772000000    -1.212000000     7.467000000
C    -3.057000000    -0.517000000     6.498000000
O    -2.656000000    -1.789000000     6.349000000
C    -2.339000000    -2.358000000     5.119000000
C    -1.427000000    -3.419000000     5.023000000
H    -0.985000000    -3.801000000     5.940000000
C    -1.239000000    -4.103000000     3.858000000
O    -0.470000000    -5.204000000     3.878000000
C    -0.238000000    -5.999000000     2.703000000
C     0.967000000    -5.957000000     2.077000000
H     1.754000000    -5.301000000     2.442000000
C    -1.157000000    -6.916000000     2.348000000
H    -2.043000000    -7.079000000     2.957000000
C    -0.944000000    -7.750000000     1.253000000
H    -1.796000000    -8.396000000     1.057000000
C     0.260000000    -7.638000000     0.546000000
H     0.406000000    -8.277000000    -0.321000000
C     1.200000000    -6.680000000     0.967000000
O     2.456000000    -6.467000000     0.252000000
C     2.626000000    -5.407000000    -0.610000000
C     3.955000000    -4.887000000    -0.711000000
H     4.817000000    -5.172000000    -0.114000000
C     4.170000000    -3.755000000    -1.537000000
O     5.460000000    -3.452000000    -1.729000000
C     5.981000000    -2.476000000    -2.588000000
C     6.114000000    -1.202000000    -2.123000000
H     5.721000000    -0.983000000    -1.133000000
C     6.303000000    -2.811000000    -3.913000000
H     6.138000000    -3.813000000    -4.302000000
C     6.836000000    -1.813000000    -4.735000000
H     7.136000000    -2.034000000    -5.756000000
C     6.987000000    -0.508000000    -4.327000000
H     7.434000000     0.270000000    -4.941000000
C     6.579000000    -0.236000000    -2.971000000
O     6.699000000     1.049000000    -2.456000000
C     5.621000000     1.792000000    -2.142000000
C     5.922000000     2.794000000    -1.246000000
H     6.909000000     2.814000000    -0.790000000
C     4.952000000     3.771000000    -0.875000000
O     5.230000000     4.498000000     0.279000000
C     4.143000000     5.110000000     0.991000000
C     3.695000000     6.376000000     0.659000000
H     4.068000000     6.905000000    -0.215000000
C     2.694000000     6.978000000     1.381000000
H     2.397000000     7.996000000     1.145000000
C     2.077000000     6.306000000     2.468000000
H     1.304000000     6.737000000     3.099000000
C     2.573000000     5.065000000     2.824000000
C     3.593000000     4.468000000     2.041000000
H     3.946000000     3.450000000     2.178000000
C     2.022000000    -1.504000000     0.772000000
H     2.229000000    -2.513000000     1.119000000
C     0.732000000    -1.146000000     0.335000000
H    -0.041000000    -1.902000000     0.228000000
C     0.429000000     0.111000000    -0.087000000
C    -0.960000000     0.485000000    -0.607000000
H    -1.152000000    -0.163000000    -1.465000000
H    -1.709000000     0.493000000     0.187000000
H    -0.820000000     1.463000000    -1.071000000
C     1.405000000     1.094000000     0.005000000
H     1.169000000     2.102000000    -0.324000000
C     2.712000000     0.765000000     0.411000000
H     3.459000000     1.550000000     0.496000000
C     2.991000000    -0.550000000     0.813000000
C     4.270000000    -0.945000000     1.508000000
O     4.974000000    -0.109000000     2.051000000
O     4.510000000    -2.107000000     1.514000000
O     7.567000000    -5.256000000    -0.848000000
H     6.790000000    -4.860000000    -1.243000000
H     7.311000000    -6.161000000    -0.671000000
O     6.105000000    -3.682000000     5.659000000
H     5.746000000    -2.886000000     5.268000000
H     7.050000000    -3.609000000     5.527000000
O     1.200000000     0.400000000     3.301000000
H     1.195000000     0.282000000     2.351000000
H     1.099000000    -0.485000000     3.653000000
O     7.081000000     1.134000000     1.305000000
H     7.618000000     0.487000000     0.847000000
H     6.330000000     0.636000000     1.628000000
O     6.601000000     3.973000000     5.304000000
H     6.166000000     4.682000000     4.830000000
H     6.036000000     3.212000000     5.167000000
O     5.659000000    -1.445000000     4.339000000
H     4.749000000    -1.494000000     4.046000000
H     6.134000000    -1.090000000     3.587000000
O     4.632000000    -6.248000000     2.633000000
H     4.512000000    -5.889000000     1.754000000
H     3.902000000    -6.857000000     2.746000000
O     7.687000000     0.834000000     6.054000000
H     7.261000000     1.556000000     5.592000000
H     8.607000000     0.896000000     5.797000000
O     9.073000000    -3.471000000     3.371000000
H     8.911000000    -2.866000000     4.094000000
H     8.447000000    -3.211000000     2.695000000
O     2.456000000     1.267000000     5.842000000
H     1.774000000     1.091000000     6.490000000
H     1.993000000     1.286000000     5.005000000
O     1.252000000    -2.070000000     4.334000000
H     0.687000000    -2.322000000     5.064000000
H     1.992000000    -2.676000000     4.384000000
O     8.357000000     3.652000000     1.306000000
H     7.853000000     2.887000000     1.582000000
H     8.136000000     4.329000000     1.946000000
O    10.186000000     1.130000000     0.853000000
H     9.384000000     1.555000000     1.157000000
H     9.914000000     0.240000000     0.627000000
O     5.802000000    -1.068000000     7.132000000
H     6.437000000    -0.353000000     7.100000000
H     5.659000000    -1.303000000     6.215000000
O     3.848000000     3.225000000     7.180000000
H     3.523000000     2.637000000     7.862000000
H     3.639000000     2.778000000     6.359000000
O     8.841000000    -1.015000000     0.226000000
H     8.348000000    -1.680000000     0.707000000
H     9.113000000    -1.454000000    -0.580000000
O     7.195000000    -2.904000000     1.252000000
H     7.438000000    -3.710000000     0.797000000
H     6.238000000    -2.900000000     1.238000000
O     3.996000000    -3.761000000     3.999000000
H     4.209000000    -3.373000000     3.150000000
H     4.840000000    -4.041000000     4.353000000
O     5.234000000     1.781000000     4.173000000
H     4.384000000     1.699000000     4.606000000
H     5.236000000     1.085000000     3.516000000
