218
-1432.72163
C    -1.558000000    -4.482000000     2.510000000
H    -1.452000000    -5.001000000     1.561000000
C    -2.332000000    -3.277000000     2.599000000
C    -2.409000000    -2.583000000     3.830000000
H    -3.045000000    -1.704000000     3.890000000
C    -2.901000000    -2.600000000     1.375000000
O    -3.424000000    -3.498000000     0.427000000
H    -2.199000000    -1.936000000     0.850000000
O    -3.964000000    -1.733000000     1.816000000
C    -4.204000000    -0.521000000     1.183000000
C    -3.713000000     0.591000000     1.824000000
H    -3.242000000     0.428000000     2.790000000
C    -3.905000000     1.849000000     1.344000000
O    -3.420000000     2.893000000     2.040000000
C    -4.510000000     1.976000000     0.100000000
C    -4.602000000     3.298000000    -0.550000000
H    -5.392000000     3.220000000    -1.299000000
C    -3.281000000     3.655000000    -1.217000000
C    -3.036000000     3.110000000    -2.485000000
H    -3.737000000     2.396000000    -2.911000000
H    -4.787000000     4.070000000     0.199000000
C    -4.920000000     0.876000000    -0.636000000
H    -5.391000000     0.944000000    -1.614000000
C    -4.801000000    -0.397000000    -0.125000000
C    -5.252000000    -1.652000000    -0.923000000
H    -5.854000000    -1.212000000    -1.721000000
H    -5.743000000    -2.419000000    -0.321000000
C    -4.030000000    -2.368000000    -1.617000000
C    -3.605000000    -1.972000000    -2.860000000
H    -4.130000000    -1.225000000    -3.449000000
C    -3.242000000    -3.247000000    -0.887000000
C    -2.078000000    -3.768000000    -1.418000000
H    -1.498000000    -4.449000000    -0.800000000
C    -1.693000000    -3.438000000    -2.728000000
O    -0.448000000    -3.866000000    -3.181000000
C     0.584000000    -2.825000000    -2.970000000
C     1.743000000    -3.450000000    -2.196000000
C     2.953000000    -2.747000000    -2.213000000
H     3.005000000    -1.885000000    -2.873000000
C     1.760000000    -4.714000000    -1.576000000
H     0.853000000    -5.312000000    -1.544000000
O     0.831000000    -2.244000000    -4.260000000
H     0.153000000    -2.084000000    -2.281000000
C    -2.523000000    -2.642000000    -3.503000000
C    -2.065000000    -2.160000000    -4.921000000
H    -2.843000000    -1.756000000    -5.571000000
H    -1.595000000    -3.026000000    -5.392000000
C    -1.183000000    -0.903000000    -4.656000000
C    -1.725000000     0.364000000    -4.633000000
H    -2.810000000     0.418000000    -4.624000000
C     0.151000000    -0.990000000    -4.388000000
C     0.954000000     0.136000000    -4.225000000
H     2.002000000     0.009000000    -3.965000000
C     0.466000000     1.372000000    -4.490000000
O     1.294000000     2.397000000    -4.259000000
C     1.274000000     3.018000000    -2.952000000
C     2.673000000     3.201000000    -2.417000000
C     3.725000000     2.516000000    -3.044000000
H     3.469000000     2.023000000    -3.978000000
C     2.999000000     3.989000000    -1.315000000
H     2.288000000     4.597000000    -0.761000000
O     0.513000000     4.217000000    -2.972000000
H     0.735000000     2.318000000    -2.297000000
C    -0.879000000     1.478000000    -4.543000000
C    -1.627000000     2.785000000    -4.537000000
H    -2.528000000     2.624000000    -5.133000000
H    -1.123000000     3.486000000    -5.205000000
C    -1.935000000     3.416000000    -3.172000000
C    -0.849000000     4.102000000    -2.560000000
C    -1.033000000     4.492000000    -1.235000000
H    -0.182000000     4.825000000    -0.647000000
C    -2.265000000     4.398000000    -0.591000000
O    -2.158000000     4.578000000     0.799000000
C    -2.096000000     3.365000000     1.695000000
H    -1.443000000     2.622000000     1.213000000
C    -1.188000000     3.587000000     2.902000000
C    -1.446000000     2.869000000     4.077000000
H    -2.236000000     2.123000000     4.068000000
C     0.000000000     4.344000000     2.817000000
H     0.348000000     4.789000000     1.888000000
C     0.789000000     4.476000000     3.969000000
O     1.897000000     5.432000000     3.929000000
C     0.503000000     3.771000000     5.146000000
H     1.109000000     3.962000000     6.028000000
C    -0.648000000     2.970000000     5.178000000
O    -0.917000000     2.275000000     6.407000000
C    -1.818000000     1.252000000     6.502000000
C    -1.455000000    -0.022000000     6.065000000
H    -0.449000000    -0.186000000     5.685000000
C    -3.136000000     1.513000000     6.923000000
H    -3.399000000     2.495000000     7.308000000
C    -4.024000000     0.424000000     7.126000000
H    -5.005000000     0.526000000     7.584000000
C    -3.508000000    -0.864000000     6.785000000
H    -4.086000000    -1.747000000     7.049000000
C    -2.262000000    -1.066000000     6.244000000
O    -1.856000000    -2.391000000     6.170000000
C    -1.801000000    -3.115000000     4.990000000
C    -0.973000000    -4.216000000     4.871000000
H    -0.430000000    -4.574000000     5.742000000
C    -0.807000000    -4.826000000     3.607000000
O    -0.018000000    -5.944000000     3.544000000
C     0.539000000    -6.602000000     2.500000000
C     1.359000000    -6.012000000     1.497000000
H     1.592000000    -4.955000000     1.593000000
C     0.226000000    -7.988000000     2.457000000
H    -0.289000000    -8.362000000     3.338000000
C     0.693000000    -8.787000000     1.409000000
H     0.436000000    -9.839000000     1.310000000
C     1.585000000    -8.219000000     0.505000000
H     1.981000000    -8.741000000    -0.362000000
C     1.965000000    -6.857000000     0.605000000
O     2.920000000    -6.342000000    -0.232000000
C     2.862000000    -5.112000000    -0.795000000
C     4.046000000    -4.414000000    -0.863000000
H     4.960000000    -4.737000000    -0.370000000
C     4.128000000    -3.244000000    -1.603000000
O     5.374000000    -2.753000000    -1.785000000
C     5.780000000    -1.879000000    -2.751000000
C     5.558000000    -0.540000000    -2.521000000
H     4.905000000    -0.227000000    -1.710000000
C     6.561000000    -2.260000000    -3.781000000
H     6.769000000    -3.296000000    -4.036000000
C     7.095000000    -1.243000000    -4.613000000
H     7.693000000    -1.647000000    -5.426000000
C     6.815000000     0.097000000    -4.484000000
H     7.345000000     0.828000000    -5.088000000
C     6.062000000     0.449000000    -3.364000000
O     6.073000000     1.817000000    -3.031000000
C     5.015000000     2.497000000    -2.483000000
C     5.300000000     3.260000000    -1.480000000
H     6.336000000     3.435000000    -1.201000000
C     4.352000000     4.070000000    -0.924000000
O     4.638000000     4.893000000     0.143000000
C     3.771000000     5.700000000     0.873000000
C     3.450000000     6.907000000     0.492000000
H     3.909000000     7.168000000    -0.458000000
C     2.556000000     7.717000000     1.187000000
H     2.297000000     8.688000000     0.773000000
C     2.027000000     7.288000000     2.408000000
H     1.309000000     7.872000000     2.979000000
C     2.378000000     5.996000000     2.773000000
C     3.281000000     5.276000000     2.068000000
H     3.467000000     4.266000000     2.423000000
C     1.152000000    -1.459000000     2.188000000
H     0.802000000    -1.956000000     3.089000000
C     0.240000000    -0.759000000     1.373000000
H    -0.794000000    -0.609000000     1.672000000
C     0.653000000    -0.256000000     0.114000000
C    -0.377000000     0.448000000    -0.706000000
H    -1.278000000    -0.169000000    -0.679000000
H    -0.678000000     1.468000000    -0.459000000
H    -0.078000000     0.379000000    -1.754000000
C     1.949000000    -0.488000000    -0.294000000
H     2.301000000    -0.156000000    -1.268000000
C     2.892000000    -1.126000000     0.517000000
H     3.929000000    -1.266000000     0.223000000
C     2.523000000    -1.534000000     1.750000000
C     3.481000000    -2.345000000     2.541000000
O     4.420000000    -2.893000000     1.970000000
O     3.271000000    -2.556000000     3.731000000
O     6.266000000    -1.515000000     1.266000000
H     6.552000000    -1.800000000     0.399000000
H     5.651000000    -2.191000000     1.550000000
O     7.763000000    -7.056000000     3.112000000
H     7.223000000    -6.266000000     3.087000000
H     7.522000000    -7.537000000     2.320000000
O     2.180000000    -4.812000000     4.657000000
H     1.367000000    -4.923000000     4.165000000
H     2.583000000    -4.030000000     4.281000000
O     5.637000000     1.213000000     2.253000000
H     4.939000000     1.001000000     2.873000000
H     5.652000000     0.472000000     1.646000000
O     8.386000000    -1.500000000     5.246000000
H     7.503000000    -1.693000000     4.930000000
H     8.265000000    -1.268000000     6.167000000
O     3.510000000    -4.511000000     6.876000000
H     2.952000000    -4.768000000     6.142000000
H     4.318000000    -5.007000000     6.748000000
O     5.997000000    -4.806000000     5.434000000
H     6.848000000    -5.078000000     5.776000000
H     6.190000000    -4.041000000     4.891000000
O     0.851000000    -0.817000000     7.826000000
H     1.462000000    -1.133000000     7.160000000
H     1.312000000    -0.093000000     8.249000000
O     7.667000000    -5.302000000    -0.312000000
H     7.803000000    -6.210000000    -0.040000000
H     6.907000000    -5.012000000     0.193000000
O     5.289000000    -1.337000000     7.736000000
H     5.019000000    -2.135000000     7.283000000
H     6.174000000    -1.527000000     8.049000000
O     3.090000000     0.883000000     3.354000000
H     2.706000000     0.310000000     4.018000000
H     2.701000000     0.588000000     2.530000000
O     2.956000000    -0.667000000     5.659000000
H     3.536000000    -0.794000000     6.410000000
H     3.056000000    -1.466000000     5.142000000
O     1.260000000    -3.610000000     8.060000000
H     1.509000000    -2.701000000     8.223000000
H     2.069000000    -4.032000000     7.769000000
O     9.177000000    -1.056000000     1.602000000
H     8.334000000    -1.291000000     1.214000000
H     9.702000000    -1.854000000     1.536000000
O     3.298000000     2.464000000     5.799000000
H     3.074000000     1.847000000     6.496000000
H     3.333000000     1.928000000     5.007000000
O     5.750000000    -1.990000000     4.446000000
H     4.809000000    -2.163000000     4.404000000
H     6.016000000    -1.892000000     3.532000000
O     8.284000000    -2.419000000    -0.756000000
H     8.199000000    -3.365000000    -0.879000000
H     8.507000000    -2.084000000    -1.625000000
O     4.038000000    -7.228000000     4.266000000
H     3.444000000    -6.502000000     4.457000000
H     4.309000000    -7.548000000     5.126000000
O     5.814000000    -5.262000000     2.501000000
H     5.471000000    -5.589000000     3.332000000
H     5.334000000    -4.447000000     2.349000000
