218
-1459.02842
C    -5.126000000     1.136000000    -0.985000000
H    -5.021000000     2.050000000    -1.564000000
C    -4.440000000     0.935000000     0.202000000
C    -4.711000000    -0.255000000     0.991000000
H    -4.048000000    -0.540000000     1.804000000
C    -3.453000000     1.910000000     0.732000000
O    -3.581000000     3.233000000     0.185000000
H    -2.494000000     1.532000000     0.348000000
O    -3.537000000     1.987000000     2.160000000
C    -2.346000000     2.164000000     2.821000000
C    -2.079000000     1.131000000     3.699000000
H    -2.821000000     0.337000000     3.731000000
C    -0.900000000     1.081000000     4.371000000
O    -0.599000000     0.021000000     5.181000000
C    -0.078000000     2.201000000     4.392000000
C     1.256000000     2.283000000     5.027000000
H     1.516000000     3.342000000     5.096000000
C     2.290000000     1.585000000     4.176000000
C     2.892000000     2.350000000     3.118000000
H     2.708000000     3.411000000     2.974000000
H     1.198000000     1.924000000     6.057000000
C    -0.478000000     3.354000000     3.663000000
H     0.169000000     4.225000000     3.725000000
C    -1.534000000     3.335000000     2.828000000
C    -1.871000000     4.622000000     2.095000000
H    -1.294000000     5.427000000     2.556000000
H    -2.941000000     4.837000000     2.129000000
C    -1.595000000     4.499000000     0.643000000
C    -0.438000000     5.087000000     0.082000000
H     0.274000000     5.708000000     0.619000000
C    -2.454000000     3.845000000    -0.298000000
C    -2.149000000     3.739000000    -1.659000000
H    -2.903000000     3.273000000    -2.288000000
C    -0.912000000     4.117000000    -2.092000000
O    -0.544000000     3.767000000    -3.335000000
C     0.321000000     2.654000000    -3.505000000
C    -0.075000000     1.775000000    -4.652000000
C     0.908000000     1.098000000    -5.398000000
H     1.958000000     1.122000000    -5.119000000
C    -1.381000000     1.667000000    -5.041000000
H    -2.188000000     2.072000000    -4.436000000
O     1.663000000     3.131000000    -3.607000000
H     0.248000000     2.019000000    -2.610000000
C    -0.058000000     4.802000000    -1.191000000
C     1.410000000     5.184000000    -1.607000000
H     1.776000000     5.999000000    -0.980000000
H     1.387000000     5.577000000    -2.625000000
C     2.364000000     4.057000000    -1.463000000
C     3.157000000     3.914000000    -0.306000000
H     3.069000000     4.691000000     0.450000000
C     2.427000000     3.038000000    -2.452000000
C     3.246000000     1.961000000    -2.243000000
H     3.137000000     1.170000000    -2.981000000
C     3.931000000     1.781000000    -1.029000000
O     4.604000000     0.591000000    -0.900000000
C     3.979000000    -0.391000000    -0.040000000
C     3.888000000    -1.744000000    -0.650000000
C     3.837000000    -1.876000000    -2.024000000
H     3.883000000    -0.967000000    -2.618000000
C     3.709000000    -2.846000000     0.226000000
H     3.558000000    -2.721000000     1.295000000
O     4.541000000    -0.312000000     1.223000000
H     2.925000000    -0.087000000     0.040000000
C     3.873000000     2.758000000    -0.073000000
C     4.630000000     2.598000000     1.256000000
H     4.834000000     3.561000000     1.730000000
H     5.620000000     2.209000000     1.006000000
C     3.843000000     1.724000000     2.287000000
C     4.011000000     0.338000000     2.264000000
C     3.195000000    -0.414000000     3.179000000
H     3.281000000    -1.498000000     3.196000000
C     2.411000000     0.186000000     4.117000000
O     1.672000000    -0.642000000     4.954000000
C     0.327000000    -0.838000000     4.510000000
H     0.370000000    -0.760000000     3.414000000
C     0.001000000    -2.275000000     4.823000000
C    -1.300000000    -2.721000000     4.568000000
H    -2.017000000    -1.957000000     4.277000000
C     0.963000000    -3.273000000     5.058000000
H     1.997000000    -2.962000000     5.191000000
C     0.696000000    -4.604000000     5.032000000
O     1.693000000    -5.580000000     4.964000000
C    -0.634000000    -5.038000000     4.927000000
H    -0.821000000    -6.106000000     4.864000000
C    -1.604000000    -4.098000000     4.639000000
O    -2.882000000    -4.588000000     4.326000000
C    -3.966000000    -3.778000000     4.085000000
C    -4.321000000    -3.477000000     2.830000000
H    -3.893000000    -4.067000000     2.023000000
C    -4.483000000    -2.974000000     5.179000000
H    -4.188000000    -3.058000000     6.222000000
C    -5.349000000    -1.931000000     4.869000000
H    -5.749000000    -1.269000000     5.633000000
C    -5.857000000    -1.782000000     3.564000000
H    -6.452000000    -0.880000000     3.447000000
C    -5.312000000    -2.569000000     2.540000000
O    -5.628000000    -2.381000000     1.206000000
C    -5.621000000    -1.179000000     0.561000000
C    -6.309000000    -0.998000000    -0.641000000
H    -7.001000000    -1.755000000    -1.002000000
C    -6.033000000     0.145000000    -1.469000000
O    -6.451000000     0.177000000    -2.787000000
C    -5.811000000     0.948000000    -3.796000000
C    -4.694000000     0.421000000    -4.467000000
H    -4.328000000    -0.575000000    -4.233000000
C    -6.315000000     2.182000000    -4.162000000
H    -7.231000000     2.487000000    -3.662000000
C    -5.773000000     2.939000000    -5.231000000
H    -6.171000000     3.904000000    -5.536000000
C    -4.788000000     2.293000000    -5.952000000
H    -4.480000000     2.743000000    -6.893000000
C    -4.159000000     1.142000000    -5.559000000
O    -3.147000000     0.578000000    -6.308000000
C    -1.810000000     0.816000000    -6.073000000
C    -0.794000000     0.042000000    -6.759000000
H    -1.117000000    -0.645000000    -7.536000000
C     0.622000000     0.226000000    -6.479000000
O     1.596000000    -0.503000000    -7.203000000
C     2.688000000    -1.007000000    -6.615000000
C     2.593000000    -1.807000000    -5.495000000
H     1.654000000    -2.187000000    -5.102000000
C     3.916000000    -0.513000000    -7.066000000
H     4.040000000     0.195000000    -7.882000000
C     5.052000000    -1.018000000    -6.403000000
H     5.989000000    -0.555000000    -6.703000000
C     4.959000000    -1.953000000    -5.388000000
H     5.907000000    -2.235000000    -4.936000000
C     3.762000000    -2.323000000    -4.938000000
O     3.671000000    -3.232000000    -3.948000000
C     3.721000000    -3.101000000    -2.645000000
C     3.494000000    -4.207000000    -1.800000000
H     3.200000000    -5.160000000    -2.234000000
C     3.600000000    -4.082000000    -0.386000000
O     3.138000000    -5.247000000     0.328000000
C     3.410000000    -5.437000000     1.649000000
C     4.727000000    -5.624000000     2.129000000
H     5.541000000    -5.605000000     1.409000000
C     5.007000000    -5.747000000     3.521000000
H     6.018000000    -5.977000000     3.849000000
C     3.978000000    -5.627000000     4.417000000
H     4.313000000    -5.609000000     5.451000000
C     2.672000000    -5.582000000     3.987000000
C     2.351000000    -5.413000000     2.612000000
H     1.332000000    -5.158000000     2.333000000
C     0.349000000    -2.529000000    -0.290000000
H     0.801000000    -3.396000000     0.184000000
C     0.494000000    -1.301000000     0.350000000
H     1.085000000    -1.233000000     1.260000000
C     0.006000000    -0.157000000    -0.285000000
C     0.243000000     1.157000000     0.400000000
H     0.107000000     1.162000000     1.483000000
H     1.279000000     1.487000000     0.294000000
H    -0.232000000     2.031000000    -0.053000000
C    -0.627000000    -0.227000000    -1.550000000
H    -1.126000000     0.626000000    -2.003000000
C    -0.716000000    -1.481000000    -2.179000000
H    -1.188000000    -1.548000000    -3.156000000
C    -0.206000000    -2.625000000    -1.579000000
C    -0.264000000    -3.967000000    -2.259000000
O    -0.887000000    -4.026000000    -3.268000000
O     0.295000000    -4.946000000    -1.732000000
O    -1.857000000    -6.625000000    -4.196000000
H    -1.991000000    -6.040000000    -3.450000000
H    -1.015000000    -6.355000000    -4.563000000
O    -3.530000000    -5.365000000    -7.009000000
H    -3.453000000    -4.412000000    -6.964000000
H    -3.205000000    -5.671000000    -6.162000000
O    -0.366000000    -9.264000000     1.127000000
H    -0.031000000    -8.412000000     0.846000000
H    -1.294000000    -9.110000000     1.303000000
O    -2.489000000    -7.538000000     1.768000000
H    -2.010000000    -6.709000000     1.777000000
H    -3.344000000    -7.317000000     1.400000000
O    -1.112000000    -4.830000000     1.097000000
H    -1.112000000    -5.244000000     0.234000000
H    -1.884000000    -4.264000000     1.091000000
O     3.216000000    -5.878000000    -5.774000000
H     2.497000000    -6.229000000    -5.248000000
H     3.990000000    -5.981000000    -5.220000000
O    -5.444000000    -5.570000000    -3.744000000
H    -4.839000000    -5.032000000    -3.233000000
H    -5.825000000    -4.964000000    -4.380000000
O     0.802000000    -4.808000000    -6.860000000
H     0.240000000    -4.234000000    -6.339000000
H     1.538000000    -5.011000000    -6.282000000
O    -0.812000000    -2.912000000    -5.573000000
H    -0.735000000    -3.300000000    -4.701000000
H    -1.630000000    -2.416000000    -5.543000000
O     0.974000000    -8.328000000    -6.035000000
H     1.569000000    -8.988000000    -5.679000000
H     0.938000000    -7.649000000    -5.362000000
O    -4.326000000    -2.538000000    -5.752000000
H    -4.217000000    -1.789000000    -6.338000000
H    -5.263000000    -2.553000000    -5.554000000
O    -3.799000000    -4.486000000    -0.637000000
H    -3.362000000    -4.088000000    -1.390000000
H    -4.460000000    -3.844000000    -0.377000000
O    -3.932000000    -8.457000000    -5.123000000
H    -3.281000000    -9.158000000    -5.097000000
H    -3.630000000    -7.825000000    -4.470000000
O    -4.899000000    -7.451000000    -1.555000000
H    -3.944000000    -7.500000000    -1.597000000
H    -5.128000000    -6.733000000    -2.146000000
O     0.906000000    -6.929000000     0.077000000
H     1.784000000    -7.170000000     0.373000000
H     1.039000000    -6.142000000    -0.451000000
O     1.370000000    -6.527000000    -3.911000000
H     0.836000000    -6.143000000    -3.215000000
H     2.257000000    -6.543000000    -3.552000000
O    -2.185000000    -9.475000000    -2.735000000
H    -1.765000000    -9.588000000    -3.587000000
H    -1.853000000    -8.636000000    -2.414000000
O    -3.426000000    -3.811000000    -3.415000000
H    -2.501000000    -3.860000000    -3.175000000
H    -3.429000000    -3.389000000    -4.274000000
O    -1.752000000    -6.831000000    -1.264000000
H    -1.258000000    -7.334000000    -0.617000000
H    -1.149000000    -6.141000000    -1.541000000
