218
-1487.54966
C    -1.280000000    -5.082000000     1.167000000
H    -1.247000000    -5.299000000     0.103000000
C    -2.041000000    -3.953000000     1.559000000
C    -1.918000000    -3.605000000     2.902000000
H    -2.264000000    -2.626000000     3.222000000
C    -2.680000000    -3.035000000     0.540000000
O    -3.123000000    -3.883000000    -0.593000000
H    -1.897000000    -2.360000000     0.165000000
O    -3.816000000    -2.381000000     1.123000000
C    -4.074000000    -1.072000000     0.799000000
C    -3.772000000    -0.150000000     1.791000000
H    -3.380000000    -0.442000000     2.762000000
C    -4.075000000     1.227000000     1.623000000
O    -3.473000000     2.085000000     2.589000000
C    -4.538000000     1.584000000     0.329000000
C    -4.687000000     3.033000000     0.005000000
H    -5.436000000     3.187000000    -0.775000000
C    -3.432000000     3.624000000    -0.555000000
C    -3.067000000     3.482000000    -1.908000000
H    -3.809000000     3.089000000    -2.598000000
H    -4.933000000     3.559000000     0.929000000
C    -4.832000000     0.669000000    -0.708000000
H    -5.086000000     0.983000000    -1.717000000
C    -4.615000000    -0.697000000    -0.450000000
C    -4.924000000    -1.789000000    -1.466000000
H    -5.732000000    -1.507000000    -2.145000000
H    -5.383000000    -2.647000000    -0.971000000
C    -3.797000000    -2.235000000    -2.269000000
C    -3.461000000    -1.542000000    -3.487000000
H    -4.007000000    -0.648000000    -3.776000000
C    -2.953000000    -3.257000000    -1.817000000
C    -1.843000000    -3.651000000    -2.573000000
H    -1.207000000    -4.454000000    -2.210000000
C    -1.579000000    -3.047000000    -3.785000000
O    -0.345000000    -3.293000000    -4.363000000
C     0.693000000    -2.449000000    -3.847000000
C     1.979000000    -3.211000000    -3.513000000
C     3.168000000    -2.491000000    -3.241000000
H     3.294000000    -1.417000000    -3.350000000
C     1.839000000    -4.520000000    -3.175000000
H     0.906000000    -5.033000000    -3.391000000
O     0.977000000    -1.327000000    -4.778000000
H     0.311000000    -2.071000000    -2.887000000
C    -2.381000000    -1.981000000    -4.232000000
C    -1.910000000    -1.101000000    -5.336000000
H    -2.799000000    -0.737000000    -5.855000000
H    -1.343000000    -1.638000000    -6.100000000
C    -1.058000000     0.082000000    -4.824000000
C    -1.620000000     1.383000000    -4.482000000
H    -2.670000000     1.552000000    -4.703000000
C     0.313000000    -0.088000000    -4.625000000
C     1.135000000     0.911000000    -4.067000000
H     2.165000000     0.631000000    -3.862000000
C     0.553000000     2.147000000    -3.730000000
O     1.374000000     3.111000000    -3.123000000
C     1.166000000     3.582000000    -1.741000000
C     2.441000000     3.758000000    -0.927000000
C     3.404000000     2.768000000    -0.999000000
H     3.179000000     1.912000000    -1.631000000
C     2.655000000     4.817000000    -0.064000000
H     1.917000000     5.604000000     0.072000000
O     0.375000000     4.736000000    -1.773000000
H     0.655000000     2.772000000    -1.200000000
C    -0.820000000     2.388000000    -4.004000000
C    -1.457000000     3.689000000    -3.789000000
H    -2.337000000     3.728000000    -4.434000000
H    -0.759000000     4.451000000    -4.141000000
C    -1.798000000     3.874000000    -2.320000000
C    -0.932000000     4.479000000    -1.369000000
C    -1.266000000     4.627000000    -0.048000000
H    -0.600000000     5.045000000     0.702000000
C    -2.503000000     4.168000000     0.354000000
O    -2.599000000     4.116000000     1.712000000
C    -2.288000000     2.810000000     2.272000000
H    -1.721000000     2.195000000     1.558000000
C    -1.342000000     3.000000000     3.489000000
C    -1.041000000     1.877000000     4.245000000
H    -1.520000000     0.965000000     3.898000000
C    -0.613000000     4.145000000     3.788000000
H    -0.735000000     5.027000000     3.166000000
C     0.294000000     4.176000000     4.884000000
O     0.843000000     5.306000000     5.297000000
C     0.467000000     3.085000000     5.658000000
H     1.031000000     3.179000000     6.582000000
C    -0.215000000     1.859000000     5.372000000
O     0.042000000     0.679000000     5.979000000
C    -0.769000000    -0.359000000     6.103000000
C    -0.347000000    -1.574000000     5.538000000
H     0.640000000    -1.694000000     5.099000000
C    -2.073000000    -0.177000000     6.579000000
H    -2.315000000     0.813000000     6.959000000
C    -2.958000000    -1.267000000     6.532000000
H    -3.986000000    -1.158000000     6.867000000
C    -2.495000000    -2.511000000     6.074000000
H    -3.209000000    -3.328000000     6.143000000
C    -1.212000000    -2.648000000     5.546000000
O    -0.805000000    -3.855000000     5.115000000
C    -1.158000000    -4.321000000     3.890000000
C    -0.545000000    -5.509000000     3.496000000
H     0.020000000    -6.131000000     4.186000000
C    -0.610000000    -5.903000000     2.121000000
O     0.106000000    -7.044000000     1.772000000
C     0.392000000    -7.336000000     0.426000000
C     1.479000000    -6.766000000    -0.202000000
H     2.122000000    -6.036000000     0.284000000
C    -0.385000000    -8.337000000    -0.247000000
H    -1.258000000    -8.719000000     0.277000000
C    -0.023000000    -8.648000000    -1.497000000
H    -0.657000000    -9.342000000    -2.043000000
C     1.036000000    -8.047000000    -2.210000000
H     1.137000000    -8.310000000    -3.260000000
C     1.793000000    -7.098000000    -1.563000000
O     2.789000000    -6.504000000    -2.302000000
C     2.898000000    -5.203000000    -2.630000000
C     4.041000000    -4.518000000    -2.291000000
H     4.911000000    -4.979000000    -1.830000000
C     4.224000000    -3.163000000    -2.651000000
O     5.271000000    -2.513000000    -2.112000000
C     5.495000000    -1.171000000    -2.388000000
C     5.568000000    -0.327000000    -1.279000000
H     5.398000000    -0.611000000    -0.244000000
C     5.653000000    -0.710000000    -3.712000000
H     5.604000000    -1.514000000    -4.442000000
C     5.999000000     0.596000000    -3.929000000
H     6.083000000     1.003000000    -4.934000000
C     5.985000000     1.514000000    -2.876000000
H     6.155000000     2.572000000    -3.061000000
C     5.761000000     1.019000000    -1.544000000
O     5.638000000     1.850000000    -0.445000000
C     4.653000000     2.855000000    -0.326000000
C     4.958000000     3.997000000     0.399000000
H     5.874000000     4.115000000     0.972000000
C     3.913000000     4.931000000     0.601000000
O     4.138000000     5.931000000     1.590000000
C     3.134000000     6.383000000     2.469000000
C     3.184000000     7.743000000     2.740000000
H     3.925000000     8.339000000     2.212000000
C     2.473000000     8.361000000     3.824000000
H     2.606000000     9.405000000     4.096000000
C     1.721000000     7.485000000     4.632000000
H     1.265000000     7.871000000     5.540000000
C     1.622000000     6.108000000     4.410000000
C     2.417000000     5.545000000     3.385000000
H     2.529000000     4.485000000     3.175000000
C     0.872000000    -1.224000000     1.904000000
H     0.732000000    -1.453000000     2.957000000
C    -0.122000000    -0.577000000     1.153000000
H    -1.080000000    -0.422000000     1.643000000
C    -0.034000000    -0.267000000    -0.230000000
C    -1.128000000     0.397000000    -0.962000000
H    -1.304000000    -0.189000000    -1.867000000
H    -2.102000000     0.372000000    -0.469000000
H    -0.879000000     1.445000000    -1.145000000
C     1.180000000    -0.378000000    -0.819000000
H     1.338000000    -0.145000000    -1.869000000
C     2.220000000    -1.105000000    -0.193000000
H     3.167000000    -1.323000000    -0.681000000
C     2.019000000    -1.492000000     1.136000000
C     3.068000000    -2.295000000     1.791000000
O     4.120000000    -2.582000000     1.240000000
O     3.016000000    -2.716000000     2.947000000
O     6.284000000    -0.408000000     5.037000000
H     5.689000000    -0.509000000     5.780000000
H     7.121000000    -0.163000000     5.431000000
O     6.205000000    -7.131000000    -0.066000000
H     5.560000000    -7.760000000    -0.387000000
H     5.690000000    -6.361000000     0.174000000
O     2.618000000     1.883000000     1.926000000
H     3.407000000     1.429000000     2.223000000
H     2.214000000     1.278000000     1.304000000
O     5.377000000    -2.943000000     3.933000000
H     4.663000000    -2.905000000     3.297000000
H     5.323000000    -2.111000000     4.404000000
O     8.408000000    -2.461000000    -1.138000000
H     7.846000000    -2.419000000    -0.364000000
H     8.771000000    -3.346000000    -1.123000000
O     7.247000000    -5.499000000     2.267000000
H     7.347000000    -6.324000000     1.792000000
H     6.407000000    -5.152000000     1.970000000
O     4.679000000    -5.018000000     0.867000000
H     3.808000000    -5.287000000     1.159000000
H     4.652000000    -4.062000000     0.880000000
O     6.614000000    -1.913000000     1.399000000
H     6.904000000    -2.432000000     2.149000000
H     5.689000000    -2.136000000     1.296000000
O     4.975000000     0.895000000     3.060000000
H     5.281000000     0.276000000     2.397000000
H     5.192000000     0.480000000     3.894000000
O     2.980000000    -5.513000000     3.586000000
H     2.709000000    -5.171000000     4.438000000
H     2.925000000    -4.760000000     2.997000000
O     4.283000000    -7.558000000     2.670000000
H     3.817000000    -6.795000000     3.012000000
H     4.724000000    -7.931000000     3.434000000
O     3.908000000     3.373000000     4.803000000
H     3.192000000     2.825000000     4.482000000
H     4.700000000     2.954000000     4.467000000
O     4.199000000    -1.247000000     6.820000000
H     4.228000000    -2.056000000     7.330000000
H     3.316000000    -0.905000000     6.962000000
O     7.075000000     2.349000000     4.057000000
H     6.819000000     2.401000000     4.978000000
H     6.400000000     1.805000000     3.651000000
O     2.662000000    -3.358000000     5.412000000
H     3.143000000    -2.801000000     6.024000000
H     3.136000000    -3.272000000     4.586000000
O     7.848000000     0.382000000     0.966000000
H     8.611000000     0.095000000     0.464000000
H     7.444000000    -0.429000000     1.274000000
O     8.169000000    -2.867000000     4.120000000
H     7.224000000    -2.978000000     4.222000000
H     8.551000000    -3.512000000     4.715000000
O     5.892000000    -5.665000000     5.581000000
H     5.109000000    -5.317000000     6.008000000
H     5.971000000    -5.157000000     4.774000000
O     1.029000000    -4.122000000     7.540000000
H     1.182000000    -3.745000000     6.673000000
H     1.902000000    -4.356000000     7.857000000
