218
-1476.97120
C    -0.913000000    -5.013000000     0.524000000
H    -0.883000000    -4.977000000    -0.562000000
C    -1.856000000    -4.180000000     1.159000000
C    -1.972000000    -4.194000000     2.566000000
H    -2.604000000    -3.443000000     3.034000000
C    -2.653000000    -3.144000000     0.365000000
O    -3.104000000    -3.701000000    -0.862000000
H    -2.032000000    -2.248000000     0.217000000
O    -3.795000000    -2.753000000     1.106000000
C    -4.167000000    -1.401000000     1.149000000
C    -3.725000000    -0.723000000     2.267000000
H    -3.269000000    -1.108000000     3.175000000
C    -3.794000000     0.705000000     2.248000000
O    -3.296000000     1.354000000     3.307000000
C    -4.390000000     1.341000000     1.100000000
C    -4.544000000     2.903000000     1.090000000
H    -5.423000000     3.238000000     0.535000000
C    -3.276000000     3.609000000     0.570000000
C    -3.090000000     3.741000000    -0.822000000
H    -3.980000000     3.557000000    -1.418000000
H    -4.659000000     3.198000000     2.135000000
C    -4.951000000     0.592000000     0.082000000
H    -5.369000000     1.103000000    -0.781000000
C    -4.701000000    -0.769000000     0.018000000
C    -5.092000000    -1.641000000    -1.119000000
H    -6.056000000    -1.351000000    -1.541000000
H    -5.361000000    -2.570000000    -0.612000000
C    -4.015000000    -1.770000000    -2.121000000
C    -3.757000000    -0.784000000    -3.115000000
H    -4.493000000     0.011000000    -3.206000000
C    -3.102000000    -2.800000000    -2.003000000
C    -1.987000000    -2.877000000    -2.797000000
H    -1.145000000    -3.561000000    -2.743000000
C    -1.774000000    -1.939000000    -3.828000000
O    -0.699000000    -2.104000000    -4.671000000
C     0.419000000    -1.282000000    -4.272000000
C     1.729000000    -2.069000000    -4.007000000
C     2.926000000    -1.374000000    -4.036000000
H     3.014000000    -0.315000000    -4.267000000
C     1.744000000    -3.475000000    -3.815000000
H     0.812000000    -4.036000000    -3.834000000
O     0.632000000    -0.101000000    -5.149000000
H     0.234000000    -0.807000000    -3.297000000
C    -2.665000000    -0.883000000    -4.006000000
C    -2.402000000     0.109000000    -5.147000000
H    -3.306000000     0.600000000    -5.513000000
H    -2.150000000    -0.350000000    -6.105000000
C    -1.442000000     1.211000000    -4.653000000
C    -1.972000000     2.312000000    -4.001000000
H    -3.046000000     2.387000000    -3.851000000
C    -0.043000000     0.976000000    -4.615000000
C     0.758000000     1.930000000    -4.051000000
H     1.817000000     1.684000000    -4.063000000
C     0.207000000     3.118000000    -3.466000000
O     1.009000000     3.997000000    -2.909000000
C     1.216000000     3.956000000    -1.520000000
C     2.648000000     3.930000000    -0.957000000
C     3.689000000     3.538000000    -1.753000000
H     3.543000000     3.322000000    -2.808000000
C     2.839000000     4.171000000     0.391000000
H     2.022000000     4.557000000     0.995000000
O     0.421000000     4.986000000    -0.887000000
H     0.829000000     2.981000000    -1.188000000
C    -1.169000000     3.309000000    -3.492000000
C    -1.762000000     4.554000000    -2.791000000
H    -2.713000000     4.881000000    -3.216000000
H    -1.134000000     5.428000000    -2.978000000
C    -1.870000000     4.246000000    -1.317000000
C    -0.832000000     4.607000000    -0.439000000
C    -1.032000000     4.326000000     0.923000000
H    -0.271000000     4.643000000     1.632000000
C    -2.194000000     3.751000000     1.447000000
O    -2.171000000     3.459000000     2.737000000
C    -2.047000000     2.126000000     3.158000000
H    -1.512000000     1.591000000     2.360000000
C    -1.157000000     1.912000000     4.458000000
C    -1.089000000     0.649000000     5.020000000
H    -1.687000000    -0.157000000     4.602000000
C    -0.393000000     3.007000000     4.892000000
H    -0.486000000     3.934000000     4.332000000
C     0.527000000     2.760000000     5.916000000
O     1.542000000     3.668000000     6.287000000
C     0.543000000     1.557000000     6.561000000
H     1.333000000     1.330000000     7.273000000
C    -0.239000000     0.528000000     6.098000000
O    -0.158000000    -0.650000000     6.772000000
C    -0.991000000    -1.710000000     6.518000000
C    -0.647000000    -2.769000000     5.583000000
H     0.310000000    -2.820000000     5.070000000
C    -2.171000000    -1.792000000     7.196000000
H    -2.511000000    -1.005000000     7.864000000
C    -3.073000000    -2.881000000     6.999000000
H    -4.028000000    -2.862000000     7.516000000
C    -2.718000000    -3.952000000     6.099000000
H    -3.463000000    -4.726000000     5.933000000
C    -1.523000000    -3.893000000     5.432000000
O    -1.112000000    -4.980000000     4.733000000
C    -1.209000000    -5.077000000     3.343000000
C    -0.269000000    -5.858000000     2.682000000
H     0.409000000    -6.436000000     3.305000000
C    -0.146000000    -5.895000000     1.281000000
O     0.717000000    -6.789000000     0.766000000
C     0.905000000    -6.898000000    -0.580000000
C     1.940000000    -6.154000000    -1.171000000
H     2.661000000    -5.671000000    -0.516000000
C    -0.093000000    -7.537000000    -1.323000000
H    -0.895000000    -8.103000000    -0.855000000
C     0.018000000    -7.488000000    -2.672000000
H    -0.730000000    -7.953000000    -3.308000000
C     1.107000000    -6.840000000    -3.313000000
H     1.024000000    -6.754000000    -4.394000000
C     2.036000000    -6.149000000    -2.568000000
O     2.984000000    -5.489000000    -3.281000000
C     2.941000000    -4.128000000    -3.569000000
C     4.084000000    -3.426000000    -3.560000000
H     5.009000000    -3.928000000    -3.288000000
C     4.106000000    -2.078000000    -3.706000000
O     5.257000000    -1.460000000    -3.472000000
C     5.450000000    -0.133000000    -3.901000000
C     5.639000000     0.748000000    -2.876000000
H     5.635000000     0.385000000    -1.852000000
C     5.385000000     0.366000000    -5.225000000
H     5.008000000    -0.306000000    -5.992000000
C     5.577000000     1.733000000    -5.507000000
H     5.491000000     2.119000000    -6.520000000
C     5.696000000     2.641000000    -4.453000000
H     5.804000000     3.706000000    -4.640000000
C     5.743000000     2.104000000    -3.139000000
O     5.983000000     2.884000000    -2.077000000
C     4.935000000     3.262000000    -1.232000000
C     5.152000000     3.372000000     0.117000000
H     6.052000000     3.051000000     0.635000000
C     4.089000000     3.805000000     0.890000000
O     4.232000000     3.682000000     2.263000000
C     3.526000000     4.360000000     3.257000000
C     3.458000000     5.742000000     3.217000000
H     3.961000000     6.314000000     2.441000000
C     2.802000000     6.468000000     4.253000000
H     2.747000000     7.553000000     4.300000000
C     2.228000000     5.772000000     5.347000000
H     1.666000000     6.315000000     6.103000000
C     2.221000000     4.382000000     5.322000000
C     3.008000000     3.700000000     4.360000000
H     3.068000000     2.615000000     4.327000000
C     2.280000000    -2.233000000    -0.371000000
H     2.564000000    -3.280000000    -0.443000000
C     1.038000000    -1.759000000    -0.659000000
H     0.315000000    -2.431000000    -1.114000000
C     0.744000000    -0.402000000    -0.524000000
C    -0.557000000     0.098000000    -1.021000000
H    -1.163000000     0.648000000    -0.299000000
H    -0.420000000     0.916000000    -1.730000000
H    -1.068000000    -0.595000000    -1.692000000
C     1.703000000     0.482000000     0.094000000
H     1.344000000     1.482000000     0.324000000
C     2.931000000    -0.045000000     0.406000000
H     3.686000000     0.576000000     0.881000000
C     3.223000000    -1.401000000     0.133000000
C     4.484000000    -1.966000000     0.600000000
O     5.530000000    -1.283000000     0.590000000
O     4.588000000    -3.094000000     1.087000000
O     8.734000000     0.099000000     1.847000000
H     7.846000000    -0.031000000     2.181000000
H     8.681000000    -0.152000000     0.925000000
O     7.301000000     2.762000000     3.033000000
H     7.117000000     1.866000000     2.750000000
H     6.782000000     2.872000000     3.830000000
O     2.258000000    -2.802000000     2.805000000
H     1.396000000    -2.942000000     2.413000000
H     2.873000000    -2.939000000     2.084000000
O     7.483000000    -2.887000000     2.174000000
H     6.966000000    -3.459000000     2.741000000
H     6.834000000    -2.354000000     1.715000000
O     8.448000000    -4.998000000    -2.933000000
H     7.784000000    -5.041000000    -2.245000000
H     8.158000000    -5.634000000    -3.587000000
O     8.776000000    -2.256000000    -2.547000000
H     8.860000000    -1.705000000    -3.325000000
H     8.831000000    -3.151000000    -2.881000000
O     7.824000000    -0.439000000    -0.694000000
H     7.001000000    -0.863000000    -0.449000000
H     8.207000000    -1.021000000    -1.350000000
O     6.136000000     0.321000000     2.515000000
H     5.495000000     0.402000000     3.222000000
H     5.769000000    -0.345000000     1.934000000
O     6.523000000    -4.347000000    -1.169000000
H     6.511000000    -3.392000000    -1.109000000
H     5.987000000    -4.640000000    -0.432000000
O     4.893000000    -4.471000000     4.240000000
H     4.536000000    -3.891000000     3.568000000
H     5.533000000    -3.933000000     4.706000000
O     5.481000000    -5.660000000     1.429000000
H     5.245000000    -4.733000000     1.468000000
H     4.904000000    -6.082000000     2.065000000
O     4.820000000     0.287000000     4.880000000
H     4.087000000    -0.327000000     4.841000000
H     4.739000000     0.703000000     5.738000000
O     2.990000000    -1.582000000     5.128000000
H     2.588000000    -1.867000000     4.307000000
H     2.606000000    -2.153000000     5.793000000
O     7.218000000    -7.638000000     0.687000000
H     7.746000000    -7.581000000     1.483000000
H     6.504000000    -7.016000000     0.828000000
O     9.527000000    -4.749000000     1.017000000
H     8.732000000    -4.215000000     1.038000000
H    10.237000000    -4.128000000     1.181000000
O    10.089000000    -2.061000000     2.894000000
H     9.774000000    -1.203000000     2.609000000
H     9.321000000    -2.629000000     2.836000000
O     7.486000000    -0.422000000     5.252000000
H     7.934000000     0.318000000     5.660000000
H     6.621000000    -0.082000000     5.021000000
O     2.963000000    -6.133000000     4.963000000
H     3.751000000    -5.642000000     4.730000000
H     2.382000000    -5.481000000     5.355000000
O     8.215000000     2.585000000    -0.200000000
H     7.776000000     2.190000000    -0.953000000
H     8.116000000     1.940000000     0.500000000
