218
-1458.61894
C    -1.667000000    -4.267000000    -0.431000000
H    -1.817000000    -4.046000000    -1.485000000
C    -2.416000000    -3.583000000     0.536000000
C    -2.205000000    -3.811000000     1.858000000
H    -2.885000000    -3.377000000     2.586000000
C    -3.354000000    -2.437000000     0.127000000
O    -3.889000000    -2.625000000    -1.210000000
H    -2.682000000    -1.567000000     0.156000000
O    -4.447000000    -2.114000000     1.000000000
C    -4.604000000    -0.755000000     1.398000000
C    -4.025000000    -0.366000000     2.569000000
H    -3.749000000    -1.060000000     3.359000000
C    -3.790000000     1.010000000     2.847000000
O    -2.942000000     1.315000000     3.866000000
C    -4.168000000     1.984000000     1.887000000
C    -3.920000000     3.483000000     2.229000000
H    -4.651000000     4.077000000     1.677000000
C    -2.600000000     4.064000000     1.779000000
C    -2.460000000     4.532000000     0.525000000
H    -3.348000000     4.711000000    -0.076000000
H    -3.994000000     3.651000000     3.305000000
C    -4.876000000     1.575000000     0.737000000
H    -5.124000000     2.297000000    -0.036000000
C    -5.050000000     0.201000000     0.483000000
C    -5.633000000    -0.148000000    -0.896000000
H    -6.217000000     0.702000000    -1.255000000
H    -6.191000000    -1.086000000    -0.929000000
C    -4.488000000    -0.369000000    -1.875000000
C    -4.186000000     0.676000000    -2.733000000
H    -4.727000000     1.617000000    -2.797000000
C    -3.836000000    -1.563000000    -2.055000000
C    -2.844000000    -1.748000000    -3.028000000
H    -2.349000000    -2.697000000    -3.220000000
C    -2.537000000    -0.666000000    -3.796000000
O    -1.436000000    -0.797000000    -4.680000000
C    -0.226000000    -0.367000000    -4.041000000
C     0.879000000    -1.346000000    -4.126000000
C     2.195000000    -0.886000000    -3.966000000
H     2.377000000     0.142000000    -3.660000000
C     0.646000000    -2.688000000    -4.525000000
H    -0.364000000    -2.996000000    -4.784000000
O     0.121000000     0.892000000    -4.713000000
H    -0.408000000    -0.172000000    -2.974000000
C    -3.221000000     0.588000000    -3.689000000
C    -2.763000000     1.758000000    -4.565000000
H    -3.590000000     2.471000000    -4.579000000
H    -2.543000000     1.483000000    -5.599000000
C    -1.517000000     2.455000000    -3.991000000
C    -1.852000000     3.518000000    -3.099000000
H    -2.912000000     3.644000000    -2.896000000
C    -0.226000000     2.013000000    -4.046000000
C     0.812000000     2.741000000    -3.528000000
H     1.822000000     2.378000000    -3.702000000
C     0.514000000     3.893000000    -2.808000000
O     1.508000000     4.552000000    -2.094000000
C     1.849000000     4.040000000    -0.756000000
C     3.327000000     3.702000000    -0.564000000
C     4.285000000     3.517000000    -1.555000000
H     4.030000000     3.546000000    -2.611000000
C     3.777000000     3.475000000     0.774000000
H     3.126000000     3.646000000     1.628000000
O     1.232000000     4.855000000     0.272000000
H     1.420000000     3.042000000    -0.583000000
C    -0.802000000     4.188000000    -2.503000000
C    -1.088000000     5.290000000    -1.456000000
H    -2.022000000     5.829000000    -1.626000000
H    -0.298000000     6.037000000    -1.553000000
C    -1.183000000     4.729000000    -0.060000000
C    -0.063000000     4.640000000     0.766000000
C    -0.192000000     4.248000000     2.122000000
H     0.719000000     4.087000000     2.693000000
C    -1.473000000     3.914000000     2.587000000
O    -1.501000000     3.176000000     3.727000000
C    -1.604000000     1.748000000     3.582000000
H    -1.317000000     1.409000000     2.576000000
C    -0.781000000     1.030000000     4.592000000
C    -1.269000000     0.064000000     5.465000000
H    -2.342000000    -0.099000000     5.526000000
C     0.616000000     1.149000000     4.439000000
H     1.025000000     1.747000000     3.628000000
C     1.481000000     0.343000000     5.147000000
O     2.848000000     0.431000000     4.893000000
C     0.936000000    -0.673000000     5.892000000
H     1.632000000    -1.380000000     6.337000000
C    -0.387000000    -0.810000000     6.065000000
O    -0.847000000    -1.825000000     6.895000000
C    -1.425000000    -2.993000000     6.432000000
C    -1.211000000    -3.521000000     5.177000000
H    -0.521000000    -3.066000000     4.472000000
C    -2.364000000    -3.614000000     7.283000000
H    -2.589000000    -3.155000000     8.242000000
C    -3.009000000    -4.805000000     6.917000000
H    -3.782000000    -5.267000000     7.526000000
C    -2.781000000    -5.230000000     5.593000000
H    -3.234000000    -6.161000000     5.260000000
C    -1.964000000    -4.604000000     4.728000000
O    -1.559000000    -5.266000000     3.617000000
C    -1.388000000    -4.840000000     2.311000000
C    -0.776000000    -5.626000000     1.385000000
H    -0.367000000    -6.620000000     1.550000000
C    -0.905000000    -5.359000000     0.017000000
O    -0.530000000    -6.373000000    -0.888000000
C    -0.460000000    -6.311000000    -2.233000000
C     0.512000000    -5.559000000    -2.880000000
H     1.263000000    -5.007000000    -2.322000000
C    -1.240000000    -7.238000000    -2.931000000
H    -1.934000000    -7.850000000    -2.360000000
C    -1.097000000    -7.234000000    -4.318000000
H    -1.513000000    -8.018000000    -4.945000000
C    -0.172000000    -6.480000000    -4.976000000
H    -0.091000000    -6.460000000    -6.060000000
C     0.581000000    -5.577000000    -4.246000000
O     1.576000000    -4.870000000    -4.864000000
C     1.776000000    -3.540000000    -4.643000000
C     3.010000000    -3.010000000    -4.511000000
H     3.798000000    -3.742000000    -4.668000000
C     3.304000000    -1.742000000    -4.225000000
O     4.606000000    -1.267000000    -3.849000000
C     5.091000000    -0.059000000    -4.086000000
C     5.497000000     0.765000000    -3.046000000
H     5.352000000     0.486000000    -2.005000000
C     5.254000000     0.426000000    -5.378000000
H     4.936000000    -0.261000000    -6.157000000
C     5.776000000     1.694000000    -5.667000000
H     5.914000000     1.943000000    -6.716000000
C     6.160000000     2.498000000    -4.648000000
H     6.622000000     3.454000000    -4.880000000
C     6.128000000     2.022000000    -3.307000000
O     6.506000000     2.876000000    -2.278000000
C     5.572000000     3.209000000    -1.268000000
C     6.054000000     3.082000000     0.041000000
H     7.105000000     2.949000000     0.285000000
C     5.128000000     3.289000000     1.040000000
O     5.672000000     3.328000000     2.342000000
C     4.966000000     3.015000000     3.458000000
C     5.132000000     3.913000000     4.529000000
H     5.900000000     4.680000000     4.471000000
C     4.495000000     3.636000000     5.770000000
H     4.791000000     4.192000000     6.656000000
C     3.749000000     2.417000000     5.866000000
H     3.344000000     2.240000000     6.859000000
C     3.581000000     1.604000000     4.755000000
C     4.193000000     1.866000000     3.583000000
H     4.230000000     1.169000000     2.750000000
C     0.896000000    -1.654000000     1.625000000
H     0.811000000    -2.263000000     2.522000000
C    -0.183000000    -0.857000000     1.152000000
H    -1.103000000    -0.929000000     1.727000000
C    -0.062000000     0.066000000     0.064000000
C    -1.245000000     0.862000000    -0.465000000
H    -0.955000000     1.601000000    -1.215000000
H    -2.003000000     0.230000000    -0.931000000
H    -1.712000000     1.294000000     0.423000000
C     1.182000000     0.190000000    -0.518000000
H     1.333000000     0.793000000    -1.409000000
C     2.280000000    -0.566000000    -0.054000000
H     3.240000000    -0.381000000    -0.528000000
C     2.159000000    -1.470000000     0.923000000
C     3.444000000    -2.128000000     1.296000000
O     4.364000000    -2.192000000     0.466000000
O     3.568000000    -2.886000000     2.312000000
O     2.718000000    -6.033000000     0.759000000
H     3.094000000    -5.569000000     0.012000000
H     2.347000000    -5.342000000     1.308000000
O     6.730000000    -0.122000000     4.917000000
H     7.054000000    -1.016000000     5.027000000
H     7.268000000     0.243000000     4.214000000
O     3.747000000    -4.497000000    -1.075000000
H     3.785000000    -3.655000000    -0.623000000
H     3.829000000    -4.275000000    -2.002000000
O     6.523000000    -3.318000000     2.187000000
H     6.677000000    -4.244000000     1.997000000
H     5.636000000    -3.153000000     1.867000000
O     6.736000000    -5.151000000    -2.878000000
H     6.952000000    -4.416000000    -2.304000000
H     6.044000000    -5.622000000    -2.414000000
O     6.064000000    -5.418000000     5.382000000
H     6.689000000    -4.693000000     5.379000000
H     5.513000000    -5.262000000     4.616000000
O     6.367000000    -0.596000000     1.164000000
H     5.592000000    -1.073000000     0.867000000
H     6.799000000    -1.197000000     1.772000000
O     8.174000000    -0.926000000    -1.924000000
H     7.607000000    -1.610000000    -1.569000000
H     7.686000000    -0.115000000    -1.787000000
O     3.771000000    -2.633000000     5.039000000
H     3.512000000    -2.848000000     4.143000000
H     4.440000000    -1.955000000     4.938000000
O     5.880000000    -6.190000000     1.319000000
H     5.510000000    -6.432000000     0.470000000
H     5.647000000    -6.917000000     1.897000000
O     4.936000000    -7.814000000    -0.640000000
H     4.036000000    -7.509000000    -0.530000000
H     5.050000000    -7.888000000    -1.587000000
O     7.979000000     0.997000000     2.500000000
H     7.530000000     1.735000000     2.912000000
H     7.360000000     0.675000000     1.845000000
O     3.769000000    -5.165000000     3.561000000
H     3.803000000    -5.812000000     2.855000000
H     3.651000000    -4.328000000     3.112000000
O     7.177000000     1.707000000     6.876000000
H     6.907000000     1.205000000     6.107000000
H     8.011000000     2.104000000     6.623000000
O     1.207000000    -8.489000000     1.423000000
H     1.627000000    -9.187000000     0.920000000
H     1.626000000    -7.686000000     1.114000000
O     6.479000000    -3.002000000    -0.948000000
H     7.054000000    -3.273000000    -0.233000000
H     5.609000000    -2.957000000    -0.552000000
O     7.798000000    -3.119000000     5.117000000
H     7.676000000    -3.288000000     4.183000000
H     8.734000000    -2.942000000     5.207000000
O     5.252000000    -3.206000000     7.696000000
H     5.448000000    -2.309000000     7.967000000
H     4.746000000    -3.108000000     6.890000000
O     2.450000000    -4.847000000     6.000000000
H     2.777000000    -5.362000000     5.262000000
H     2.852000000    -3.986000000     5.887000000
