218
-1467.07724
C    -0.981000000    -5.306000000    -0.834000000
H    -1.667000000    -5.374000000    -1.675000000
C    -1.375000000    -4.488000000     0.214000000
C    -0.586000000    -4.394000000     1.352000000
H    -0.856000000    -3.676000000     2.122000000
C    -2.478000000    -3.503000000     0.142000000
O    -3.374000000    -3.686000000    -0.942000000
H    -2.045000000    -2.502000000     0.005000000
O    -3.284000000    -3.433000000     1.344000000
C    -3.569000000    -2.191000000     1.870000000
C    -2.899000000    -1.793000000     2.985000000
H    -2.229000000    -2.535000000     3.412000000
C    -3.066000000    -0.464000000     3.528000000
O    -2.221000000    -0.083000000     4.567000000
C    -3.956000000     0.414000000     2.845000000
C    -4.114000000     1.876000000     3.333000000
H    -5.145000000     2.164000000     3.117000000
C    -3.037000000     2.687000000     2.668000000
C    -3.270000000     3.430000000     1.458000000
H    -4.224000000     3.272000000     0.962000000
H    -4.038000000     1.896000000     4.422000000
C    -4.637000000    -0.019000000     1.743000000
H    -5.250000000     0.734000000     1.254000000
C    -4.491000000    -1.289000000     1.262000000
C    -5.341000000    -1.665000000     0.065000000
H    -6.303000000    -1.177000000    -0.106000000
H    -5.531000000    -2.735000000     0.175000000
C    -4.506000000    -1.479000000    -1.213000000
C    -4.466000000    -0.268000000    -1.910000000
H    -5.104000000     0.536000000    -1.551000000
C    -3.605000000    -2.539000000    -1.688000000
C    -2.753000000    -2.251000000    -2.798000000
H    -1.942000000    -2.931000000    -3.045000000
C    -2.846000000    -1.055000000    -3.524000000
O    -1.928000000    -0.783000000    -4.475000000
C    -0.803000000    -0.032000000    -4.126000000
C     0.511000000    -0.669000000    -4.646000000
C     1.654000000     0.056000000    -4.664000000
H     1.630000000     1.082000000    -4.307000000
C     0.538000000    -2.032000000    -4.939000000
H    -0.391000000    -2.583000000    -5.059000000
O    -0.928000000     1.373000000    -4.477000000
H    -0.768000000    -0.025000000    -3.026000000
C    -3.655000000    -0.035000000    -3.057000000
C    -3.744000000     1.327000000    -3.742000000
H    -4.754000000     1.726000000    -3.625000000
H    -3.608000000     1.298000000    -4.825000000
C    -2.759000000     2.339000000    -3.145000000
C    -3.151000000     3.197000000    -2.149000000
H    -4.140000000     3.172000000    -1.696000000
C    -1.416000000     2.333000000    -3.593000000
C    -0.486000000     3.188000000    -3.095000000
H     0.550000000     3.120000000    -3.416000000
C    -0.871000000     4.076000000    -2.095000000
O     0.144000000     4.814000000    -1.476000000
C     0.578000000     4.283000000    -0.262000000
C     2.101000000     4.250000000    -0.326000000
C     2.801000000     4.284000000    -1.556000000
H     2.280000000     4.253000000    -2.509000000
C     2.786000000     4.227000000     0.882000000
H     2.251000000     3.916000000     1.775000000
O     0.056000000     4.929000000     0.919000000
H     0.326000000     3.212000000    -0.268000000
C    -2.194000000     4.110000000    -1.604000000
C    -2.589000000     4.989000000    -0.431000000
H    -3.634000000     5.304000000    -0.476000000
H    -2.078000000     5.953000000    -0.476000000
C    -2.315000000     4.254000000     0.870000000
C    -1.021000000     4.281000000     1.450000000
C    -0.716000000     3.597000000     2.605000000
H     0.331000000     3.514000000     2.883000000
C    -1.801000000     2.852000000     3.261000000
O    -1.460000000     2.195000000     4.401000000
C    -1.121000000     0.785000000     4.176000000
H    -0.768000000     0.655000000     3.142000000
C     0.085000000     0.372000000     5.003000000
C     0.069000000    -0.872000000     5.606000000
H    -0.779000000    -1.549000000     5.540000000
C     1.227000000     1.178000000     5.061000000
H     1.184000000     2.217000000     4.744000000
C     2.381000000     0.781000000     5.705000000
O     3.560000000     1.538000000     5.806000000
C     2.318000000    -0.458000000     6.363000000
H     3.253000000    -0.783000000     6.814000000
C     1.248000000    -1.341000000     6.267000000
O     1.380000000    -2.609000000     6.696000000
C     0.912000000    -3.582000000     5.937000000
C     1.269000000    -3.706000000     4.557000000
H     1.983000000    -3.025000000     4.099000000
C     0.127000000    -4.515000000     6.505000000
H    -0.101000000    -4.402000000     7.562000000
C    -0.277000000    -5.662000000     5.800000000
H    -0.989000000    -6.358000000     6.236000000
C     0.095000000    -5.789000000     4.464000000
H    -0.168000000    -6.703000000     3.937000000
C     0.826000000    -4.806000000     3.822000000
O     1.346000000    -5.094000000     2.575000000
C     0.536000000    -5.216000000     1.493000000
C     0.916000000    -6.108000000     0.471000000
H     1.839000000    -6.676000000     0.561000000
C     0.143000000    -6.167000000    -0.667000000
O     0.542000000    -6.756000000    -1.849000000
C     0.279000000    -6.207000000    -3.123000000
C     0.947000000    -5.141000000    -3.680000000
H     1.623000000    -4.597000000    -3.026000000
C    -0.613000000    -6.912000000    -3.931000000
H    -1.080000000    -7.835000000    -3.597000000
C    -0.989000000    -6.467000000    -5.218000000
H    -1.702000000    -7.020000000    -5.824000000
C    -0.142000000    -5.481000000    -5.812000000
H    -0.292000000    -5.117000000    -6.825000000
C     0.843000000    -4.844000000    -5.016000000
O     1.735000000    -3.954000000    -5.598000000
C     1.762000000    -2.625000000    -5.346000000
C     2.868000000    -1.791000000    -5.540000000
H     3.809000000    -2.241000000    -5.846000000
C     2.835000000    -0.527000000    -5.071000000
O     4.014000000     0.198000000    -5.221000000
C     4.029000000     1.617000000    -5.125000000
C     4.409000000     2.266000000    -3.995000000
H     4.630000000     1.703000000    -3.092000000
C     3.888000000     2.351000000    -6.271000000
H     3.681000000     1.759000000    -7.159000000
C     3.970000000     3.785000000    -6.284000000
H     3.661000000     4.393000000    -7.130000000
C     4.335000000     4.350000000    -5.086000000
H     4.233000000     5.424000000    -4.950000000
C     4.568000000     3.603000000    -3.915000000
O     4.848000000     4.247000000    -2.739000000
C     4.163000000     4.217000000    -1.544000000
C     4.854000000     4.309000000    -0.356000000
H     5.938000000     4.225000000    -0.375000000
C     4.179000000     4.211000000     0.822000000
O     4.977000000     4.040000000     1.923000000
C     4.443000000     3.957000000     3.230000000
C     4.061000000     5.106000000     3.876000000
H     4.194000000     6.055000000     3.362000000
C     3.604000000     5.104000000     5.189000000
H     3.505000000     6.022000000     5.763000000
C     3.407000000     3.892000000     5.846000000
H     3.124000000     3.818000000     6.892000000
C     3.709000000     2.748000000     5.142000000
C     4.170000000     2.746000000     3.824000000
H     4.391000000     1.773000000     3.393000000
C     2.231000000    -1.218000000     1.462000000
H     2.531000000    -1.906000000     2.248000000
C     0.859000000    -0.919000000     1.269000000
H     0.089000000    -1.365000000     1.893000000
C     0.452000000     0.052000000     0.349000000
C    -1.052000000     0.528000000     0.199000000
H    -1.881000000    -0.130000000     0.467000000
H    -1.235000000     1.456000000     0.744000000
H    -1.216000000     0.672000000    -0.871000000
C     1.404000000     0.575000000    -0.463000000
H     0.949000000     1.213000000    -1.217000000
C     2.766000000     0.328000000    -0.233000000
H     3.477000000     0.800000000    -0.906000000
C     3.193000000    -0.543000000     0.736000000
C     4.603000000    -0.893000000     0.946000000
O     5.464000000    -0.336000000     0.244000000
O     4.859000000    -1.838000000     1.728000000
O     6.862000000    -1.743000000    -4.583000000
H     6.587000000    -0.929000000    -4.162000000
H     7.241000000    -2.263000000    -3.874000000
O     8.057000000    -3.100000000    -2.507000000
H     8.303000000    -3.929000000    -2.917000000
H     7.364000000    -3.333000000    -1.890000000
O     9.591000000    -3.373000000    -0.265000000
H     8.779000000    -3.423000000     0.240000000
H     9.306000000    -3.185000000    -1.159000000
O    10.337000000    -1.941000000     2.565000000
H     9.868000000    -2.762000000     2.712000000
H     9.670000000    -1.262000000     2.667000000
O     7.983000000    -0.231000000     2.478000000
H     7.208000000    -0.308000000     3.034000000
H     7.644000000     0.076000000     1.637000000
O     4.616000000    -5.464000000     0.080000000
H     4.230000000    -6.288000000     0.378000000
H     4.474000000    -5.461000000    -0.866000000
O     7.472000000    -5.676000000     1.285000000
H     7.055000000    -5.225000000     0.551000000
H     7.397000000    -6.606000000     1.069000000
O     6.677000000     0.136000000    -2.241000000
H     6.265000000    -0.340000000    -1.519000000
H     6.557000000     1.059000000    -2.018000000
O     6.701000000    -3.387000000    -0.001000000
H     6.391000000    -2.611000000     0.465000000
H     5.924000000    -3.940000000    -0.089000000
O     6.855000000     1.854000000     0.850000000
H     6.284000000     2.574000000     1.116000000
H     6.260000000     1.120000000     0.698000000
O    10.083000000    -0.129000000    -0.272000000
H     9.933000000    -1.029000000     0.017000000
H     9.833000000    -0.130000000    -1.196000000
O     5.141000000    -4.244000000     2.704000000
H     5.524000000    -4.780000000     2.009000000
H     5.065000000    -3.371000000     2.319000000
O     3.791000000    -7.030000000     2.832000000
H     3.758000000    -6.074000000     2.808000000
H     3.214000000    -7.271000000     3.557000000
O     8.882000000    -4.162000000     2.969000000
H     8.411000000    -4.865000000     2.520000000
H     8.199000000    -3.667000000     3.421000000
O     7.331000000     2.222000000     3.663000000
H     7.453000000     1.937000000     2.757000000
H     6.387000000     2.361000000     3.745000000
O     1.026000000    -2.476000000    -1.427000000
H     1.302000000    -2.106000000    -0.589000000
H     1.166000000    -1.770000000    -2.058000000
O     5.699000000    -0.531000000     3.893000000
H     5.613000000    -1.267000000     4.500000000
H     5.257000000    -0.825000000     3.097000000
O     9.580000000     2.630000000    -0.090000000
H     8.635000000     2.523000000     0.021000000
H     9.889000000     1.762000000    -0.351000000
O     6.137000000    -3.031000000     4.928000000
H     5.757000000    -3.511000000     4.191000000
H     6.784000000    -3.632000000     5.297000000
