218
-1487.81921
C    -0.467000000    -5.024000000     0.889000000
H    -0.844000000    -5.012000000    -0.131000000
C    -1.051000000    -4.249000000     1.822000000
C    -0.563000000    -4.339000000     3.139000000
H    -0.943000000    -3.840000000     4.027000000
C    -2.235000000    -3.367000000     1.399000000
O    -3.111000000    -3.977000000     0.403000000
H    -1.883000000    -2.398000000     1.017000000
O    -2.936000000    -3.010000000     2.597000000
C    -3.347000000    -1.694000000     2.692000000
C    -2.615000000    -0.894000000     3.560000000
H    -1.824000000    -1.329000000     4.166000000
C    -2.837000000     0.427000000     3.563000000
O    -2.051000000     1.164000000     4.366000000
C    -3.907000000     0.973000000     2.825000000
C    -4.137000000     2.515000000     2.808000000
H    -5.125000000     2.752000000     2.407000000
C    -3.101000000     3.137000000     1.865000000
C    -3.537000000     3.484000000     0.606000000
H    -4.501000000     3.152000000     0.228000000
H    -4.119000000     2.918000000     3.822000000
C    -4.665000000     0.168000000     1.910000000
H    -5.496000000     0.496000000     1.291000000
C    -4.322000000    -1.170000000     1.844000000
C    -5.153000000    -2.090000000     0.944000000
H    -6.135000000    -1.642000000     0.777000000
H    -5.313000000    -3.057000000     1.425000000
C    -4.453000000    -2.171000000    -0.387000000
C    -4.653000000    -1.194000000    -1.365000000
H    -5.363000000    -0.389000000    -1.192000000
C    -3.440000000    -3.172000000    -0.612000000
C    -2.678000000    -3.132000000    -1.789000000
H    -1.806000000    -3.778000000    -1.840000000
C    -2.923000000    -2.229000000    -2.811000000
O    -2.173000000    -2.258000000    -3.982000000
C    -1.107000000    -1.332000000    -4.123000000
C     0.275000000    -1.928000000    -4.526000000
C     1.316000000    -1.015000000    -4.783000000
H     1.089000000     0.048000000    -4.787000000
C     0.561000000    -3.297000000    -4.573000000
H    -0.263000000    -3.899000000    -4.199000000
O    -1.580000000    -0.297000000    -4.989000000
H    -0.940000000    -0.848000000    -3.149000000
C    -3.961000000    -1.345000000    -2.591000000
C    -4.279000000    -0.339000000    -3.733000000
H    -5.310000000    -0.031000000    -3.544000000
H    -4.186000000    -0.866000000    -4.685000000
C    -3.296000000     0.853000000    -3.639000000
C    -3.644000000     1.943000000    -2.759000000
H    -4.618000000     1.986000000    -2.280000000
C    -2.047000000     0.808000000    -4.308000000
C    -1.088000000     1.746000000    -3.912000000
H    -0.078000000     1.705000000    -4.310000000
C    -1.441000000     2.790000000    -3.061000000
O    -0.540000000     3.772000000    -2.803000000
C     0.150000000     3.804000000    -1.534000000
C     1.641000000     4.044000000    -1.685000000
C     2.378000000     3.747000000    -2.918000000
H     1.875000000     3.449000000    -3.835000000
C     2.430000000     4.330000000    -0.528000000
H     1.895000000     4.492000000     0.404000000
O    -0.397000000     4.876000000    -0.656000000
H     0.040000000     2.822000000    -1.051000000
C    -2.713000000     2.977000000    -2.513000000
C    -3.102000000     4.208000000    -1.695000000
H    -4.178000000     4.377000000    -1.773000000
H    -2.600000000     5.105000000    -2.064000000
C    -2.656000000     4.177000000    -0.231000000
C    -1.400000000     4.578000000     0.218000000
C    -1.060000000     4.361000000     1.580000000
H    -0.073000000     4.569000000     1.986000000
C    -1.929000000     3.677000000     2.380000000
O    -1.373000000     3.318000000     3.586000000
C    -1.002000000     1.903000000     3.718000000
H    -0.786000000     1.451000000     2.738000000
C     0.346000000     1.720000000     4.467000000
C     0.672000000     0.592000000     5.278000000
H    -0.081000000    -0.170000000     5.459000000
C     1.331000000     2.669000000     4.295000000
H     1.052000000     3.600000000     3.808000000
C     2.613000000     2.393000000     4.861000000
O     3.707000000     3.308000000     4.781000000
C     2.844000000     1.313000000     5.697000000
H     3.829000000     1.263000000     6.152000000
C     1.850000000     0.427000000     5.921000000
O     2.192000000    -0.679000000     6.672000000
C     1.487000000    -1.874000000     6.691000000
C     1.564000000    -2.729000000     5.616000000
H     2.102000000    -2.486000000     4.703000000
C     0.959000000    -2.330000000     7.886000000
H     0.890000000    -1.634000000     8.718000000
C     0.409000000    -3.556000000     7.953000000
H    -0.173000000    -3.887000000     8.809000000
C     0.407000000    -4.397000000     6.841000000
H    -0.053000000    -5.380000000     6.893000000
C     0.991000000    -3.987000000     5.622000000
O     1.246000000    -4.927000000     4.598000000
C     0.663000000    -4.971000000     3.360000000
C     1.304000000    -5.712000000     2.365000000
H     2.251000000    -6.229000000     2.494000000
C     0.669000000    -5.797000000     1.152000000
O     1.391000000    -6.339000000     0.138000000
C     1.055000000    -6.411000000    -1.242000000
C     1.690000000    -5.664000000    -2.207000000
H     2.401000000    -4.922000000    -1.852000000
C     0.120000000    -7.395000000    -1.581000000
H    -0.427000000    -7.960000000    -0.831000000
C    -0.211000000    -7.515000000    -2.942000000
H    -0.986000000    -8.232000000    -3.201000000
C     0.459000000    -6.794000000    -3.945000000
H     0.235000000    -6.921000000    -5.001000000
C     1.414000000    -5.834000000    -3.557000000
O     2.189000000    -5.066000000    -4.488000000
C     1.838000000    -3.772000000    -4.739000000
C     2.822000000    -2.882000000    -5.078000000
H     3.837000000    -3.219000000    -5.275000000
C     2.616000000    -1.496000000    -5.123000000
O     3.693000000    -0.692000000    -5.346000000
C     3.758000000     0.661000000    -5.767000000
C     3.967000000     1.617000000    -4.796000000
H     4.036000000     1.321000000    -3.752000000
C     3.783000000     1.033000000    -7.135000000
H     3.772000000     0.263000000    -7.901000000
C     4.079000000     2.342000000    -7.510000000
H     4.412000000     2.537000000    -8.526000000
C     4.216000000     3.308000000    -6.527000000
H     4.336000000     4.368000000    -6.738000000
C     4.183000000     2.923000000    -5.180000000
O     4.433000000     3.905000000    -4.231000000
C     3.756000000     3.960000000    -2.979000000
C     4.439000000     4.298000000    -1.868000000
H     5.505000000     4.508000000    -1.902000000
C     3.828000000     4.426000000    -0.630000000
O     4.687000000     4.867000000     0.360000000
C     4.225000000     5.176000000     1.606000000
C     3.599000000     6.346000000     1.854000000
H     3.605000000     7.174000000     1.150000000
C     3.030000000     6.553000000     3.070000000
H     2.446000000     7.447000000     3.273000000
C     3.103000000     5.571000000     4.089000000
H     2.726000000     5.715000000     5.099000000
C     3.713000000     4.381000000     3.789000000
C     4.207000000     4.140000000     2.496000000
H     4.649000000     3.199000000     2.177000000
C     1.238000000    -1.983000000     1.033000000
H     1.343000000    -2.601000000     1.921000000
C     0.122000000    -1.215000000     0.933000000
H    -0.621000000    -1.108000000     1.719000000
C    -0.126000000    -0.453000000    -0.221000000
C    -1.283000000     0.453000000    -0.264000000
H    -2.043000000     0.198000000     0.478000000
H    -0.977000000     1.467000000     0.002000000
H    -1.672000000     0.457000000    -1.285000000
C     0.771000000    -0.412000000    -1.236000000
H     0.662000000     0.189000000    -2.135000000
C     1.908000000    -1.141000000    -1.144000000
H     2.573000000    -1.107000000    -2.002000000
C     2.192000000    -1.903000000    -0.004000000
C     3.442000000    -2.697000000    -0.015000000
O     3.998000000    -3.031000000    -1.059000000
O     3.900000000    -3.047000000     1.032000000
O     7.874000000    -5.057000000     3.725000000
H     7.527000000    -4.575000000     2.974000000
H     7.119000000    -5.532000000     4.074000000
O     7.181000000    -0.204000000    -4.672000000
H     7.228000000    -0.335000000    -5.619000000
H     6.619000000    -0.913000000    -4.359000000
O     4.388000000     0.935000000    -0.681000000
H     4.353000000     1.886000000    -0.781000000
H     4.884000000     0.797000000     0.126000000
O     9.189000000    -3.595000000    -0.016000000
H     8.435000000    -4.185000000    -0.026000000
H     9.010000000    -2.966000000    -0.715000000
O     6.071000000    -7.920000000     1.857000000
H     5.474000000    -7.225000000     1.581000000
H     6.110000000    -7.838000000     2.810000000
O     6.583000000    -4.071000000     1.685000000
H     5.653000000    -4.062000000     1.912000000
H     6.798000000    -3.153000000     1.519000000
O     5.483000000    -1.276000000    -2.425000000
H     4.986000000    -2.050000000    -2.162000000
H     5.116000000    -0.566000000    -1.899000000
O     4.220000000    -6.747000000    -0.154000000
H     3.502000000    -6.144000000     0.038000000
H     3.938000000    -7.213000000    -0.941000000
O     2.354000000     1.384000000     1.474000000
H     2.544000000     0.799000000     0.740000000
H     2.514000000     0.852000000     2.253000000
O     5.884000000     0.574000000     1.691000000
H     6.410000000    -0.188000000     1.448000000
H     5.217000000     0.226000000     2.283000000
O     6.597000000    -7.539000000    -2.685000000
H     6.739000000    -6.624000000    -2.927000000
H     7.270000000    -7.720000000    -2.028000000
O     7.571000000    -5.020000000    -3.707000000
H     7.310000000    -4.727000000    -2.834000000
H     7.231000000    -4.347000000    -4.297000000
O     8.134000000    -2.074000000    -2.148000000
H     8.761000000    -2.033000000    -2.870000000
H     7.307000000    -1.784000000    -2.532000000
O     5.078000000    -2.936000000     5.182000000
H     5.074000000    -3.652000000     5.818000000
H     5.822000000    -2.391000000     5.441000000
O     6.521000000    -1.829000000     0.280000000
H     5.678000000    -2.277000000     0.202000000
H     6.841000000    -1.762000000    -0.619000000
O     4.139000000    -1.383000000     3.004000000
H     4.437000000    -1.926000000     3.734000000
H     4.156000000    -1.969000000     2.247000000
O     6.704000000     1.713000000    -2.776000000
H     6.857000000     1.136000000    -3.525000000
H     6.450000000     1.122000000    -2.067000000
O     9.719000000    -0.441000000     1.387000000
H     9.111000000    -0.890000000     0.800000000
H     9.535000000    -0.811000000     2.251000000
O     5.980000000    -4.632000000    -1.596000000
H     5.229000000    -4.053000000    -1.463000000
H     5.997000000    -5.185000000    -0.815000000
