218
-1442.11842
C    -1.552000000    -4.510000000     0.472000000
H    -1.870000000    -3.948000000    -0.403000000
C    -2.106000000    -4.056000000     1.638000000
C    -1.675000000    -4.597000000     2.830000000
H    -2.117000000    -4.306000000     3.780000000
C    -2.873000000    -2.730000000     1.668000000
O    -4.025000000    -2.862000000     0.754000000
H    -2.237000000    -1.908000000     1.308000000
O    -3.444000000    -2.415000000     2.953000000
C    -3.208000000    -1.094000000     3.291000000
C    -2.099000000    -0.775000000     4.040000000
H    -1.525000000    -1.519000000     4.587000000
C    -1.755000000     0.582000000     4.319000000
O    -0.491000000     0.792000000     4.895000000
C    -2.521000000     1.597000000     3.791000000
C    -2.230000000     3.021000000     4.021000000
H    -3.169000000     3.557000000     4.172000000
C    -1.333000000     3.507000000     2.927000000
C    -1.924000000     4.211000000     1.866000000
H    -3.009000000     4.282000000     1.842000000
H    -1.707000000     3.132000000     4.974000000
C    -3.628000000     1.222000000     2.973000000
H    -4.295000000     2.016000000     2.648000000
C    -4.051000000    -0.088000000     2.815000000
C    -5.263000000    -0.322000000     1.917000000
H    -6.015000000     0.464000000     2.017000000
H    -5.736000000    -1.244000000     2.261000000
C    -4.845000000    -0.508000000     0.446000000
C    -4.880000000     0.619000000    -0.341000000
H    -5.194000000     1.580000000     0.058000000
C    -4.346000000    -1.750000000    -0.037000000
C    -3.887000000    -1.775000000    -1.367000000
H    -3.467000000    -2.670000000    -1.819000000
C    -4.034000000    -0.663000000    -2.180000000
O    -3.519000000    -0.667000000    -3.491000000
C    -2.234000000    -0.106000000    -3.658000000
C    -1.194000000    -0.962000000    -4.421000000
C    -0.044000000    -0.354000000    -5.031000000
H     0.035000000     0.719000000    -4.874000000
C    -1.338000000    -2.294000000    -4.423000000
H    -2.208000000    -2.767000000    -3.975000000
O    -2.404000000     1.250000000    -4.250000000
H    -1.775000000    -0.012000000    -2.663000000
C    -4.465000000     0.564000000    -1.621000000
C    -4.709000000     1.762000000    -2.524000000
H    -5.533000000     2.364000000    -2.134000000
H    -4.909000000     1.496000000    -3.564000000
C    -3.534000000     2.702000000    -2.550000000
C    -3.333000000     3.696000000    -1.655000000
H    -4.161000000     3.906000000    -0.983000000
C    -2.437000000     2.365000000    -3.407000000
C    -1.229000000     3.069000000    -3.374000000
H    -0.432000000     2.683000000    -4.004000000
C    -1.115000000     4.111000000    -2.509000000
O     0.166000000     4.636000000    -2.379000000
C     1.060000000     4.024000000    -1.344000000
C     2.380000000     3.725000000    -1.965000000
C     2.633000000     3.578000000    -3.318000000
H     1.795000000     3.661000000    -4.005000000
C     3.400000000     3.583000000    -1.014000000
H     3.226000000     3.664000000     0.056000000
O     1.033000000     4.903000000    -0.230000000
H     0.618000000     3.067000000    -1.031000000
C    -2.096000000     4.365000000    -1.566000000
C    -1.905000000     5.381000000    -0.406000000
H    -2.872000000     5.836000000    -0.185000000
H    -1.193000000     6.157000000    -0.695000000
C    -1.157000000     4.691000000     0.765000000
C     0.218000000     4.508000000     0.813000000
C     0.784000000     3.775000000     1.870000000
H     1.847000000     3.553000000     1.923000000
C     0.060000000     3.248000000     2.898000000
O     0.717000000     2.612000000     3.901000000
C     0.554000000     1.196000000     3.979000000
H     0.216000000     0.857000000     2.989000000
C     1.879000000     0.448000000     4.367000000
C     1.897000000    -0.891000000     4.626000000
H     0.995000000    -1.495000000     4.673000000
C     3.062000000     1.173000000     4.362000000
H     3.096000000     2.246000000     4.192000000
C     4.332000000     0.542000000     4.367000000
O     5.505000000     1.110000000     3.941000000
C     4.399000000    -0.805000000     4.718000000
H     5.321000000    -1.352000000     4.896000000
C     3.183000000    -1.543000000     4.855000000
O     3.240000000    -2.936000000     5.057000000
C     2.278000000    -3.835000000     5.518000000
C     1.496000000    -4.522000000     4.599000000
H     1.476000000    -4.278000000     3.540000000
C     2.254000000    -4.262000000     6.781000000
H     2.925000000    -3.706000000     7.430000000
C     1.409000000    -5.313000000     7.223000000
H     1.416000000    -5.582000000     8.276000000
C     0.564000000    -5.892000000     6.314000000
H    -0.150000000    -6.642000000     6.643000000
C     0.549000000    -5.506000000     4.955000000
O    -0.245000000    -6.149000000     4.056000000
C    -0.685000000    -5.592000000     2.897000000
C    -0.142000000    -6.047000000     1.710000000
H     0.587000000    -6.852000000     1.697000000
C    -0.651000000    -5.549000000     0.453000000
O     0.013000000    -5.896000000    -0.728000000
C    -0.665000000    -5.987000000    -1.897000000
C    -0.253000000    -5.142000000    -2.937000000
H     0.483000000    -4.364000000    -2.753000000
C    -1.505000000    -7.060000000    -2.074000000
H    -1.658000000    -7.844000000    -1.338000000
C    -2.023000000    -7.336000000    -3.277000000
H    -2.666000000    -8.201000000    -3.423000000
C    -1.739000000    -6.465000000    -4.313000000
H    -2.173000000    -6.679000000    -5.286000000
C    -0.888000000    -5.331000000    -4.163000000
O    -0.717000000    -4.522000000    -5.276000000
C    -0.514000000    -3.120000000    -5.142000000
C     0.657000000    -2.563000000    -5.677000000
H     1.254000000    -3.145000000    -6.375000000
C     0.858000000    -1.161000000    -5.641000000
O     1.782000000    -0.523000000    -6.419000000
C     2.043000000     0.795000000    -6.583000000
C     2.970000000     1.326000000    -5.704000000
H     3.363000000     0.791000000    -4.844000000
C     1.301000000     1.518000000    -7.404000000
H     0.559000000     1.040000000    -8.038000000
C     1.555000000     2.875000000    -7.549000000
H     1.064000000     3.518000000    -8.275000000
C     2.554000000     3.439000000    -6.762000000
H     2.752000000     4.500000000    -6.896000000
C     3.251000000     2.715000000    -5.797000000
O     4.227000000     3.179000000    -5.071000000
C     3.959000000     3.327000000    -3.715000000
C     4.927000000     3.118000000    -2.749000000
H     5.945000000     3.053000000    -3.125000000
C     4.662000000     3.236000000    -1.410000000
O     5.635000000     2.979000000    -0.497000000
C     5.414000000     3.196000000     0.876000000
C     5.431000000     4.468000000     1.473000000
H     5.334000000     5.389000000     0.903000000
C     5.410000000     4.610000000     2.851000000
H     5.400000000     5.576000000     3.350000000
C     5.472000000     3.466000000     3.635000000
H     5.354000000     3.573000000     4.710000000
C     5.557000000     2.220000000     3.128000000
C     5.579000000     2.107000000     1.742000000
H     5.645000000     1.108000000     1.319000000
C     1.574000000    -1.943000000     0.074000000
H     2.077000000    -2.649000000     0.731000000
C     0.466000000    -1.168000000     0.429000000
H    -0.139000000    -1.236000000     1.330000000
C     0.021000000    -0.138000000    -0.439000000
C    -1.104000000     0.825000000    -0.005000000
H    -1.044000000     1.799000000    -0.495000000
H    -2.101000000     0.411000000    -0.164000000
H    -1.072000000     1.004000000     1.072000000
C     0.572000000     0.065000000    -1.667000000
H     0.321000000     0.974000000    -2.207000000
C     1.614000000    -0.762000000    -2.044000000
H     2.174000000    -0.557000000    -2.953000000
C     2.177000000    -1.704000000    -1.178000000
C     3.438000000    -2.446000000    -1.530000000
O     4.103000000    -2.114000000    -2.516000000
O     3.861000000    -3.412000000    -0.864000000
O     2.800000000    -5.113000000    -6.557000000
H     3.495000000    -5.602000000    -6.117000000
H     2.862000000    -4.229000000    -6.194000000
O     3.534000000    -2.823000000    -5.017000000
H     3.518000000    -2.558000000    -4.098000000
H     3.670000000    -2.007000000    -5.499000000
O     5.423000000    -4.440000000     1.031000000
H     4.963000000    -5.264000000     0.876000000
H     4.978000000    -3.807000000     0.468000000
O     5.808000000    -7.724000000    -0.847000000
H     5.666000000    -8.481000000    -1.416000000
H     4.968000000    -7.267000000    -0.842000000
O     4.242000000    -6.663000000     2.335000000
H     3.805000000    -7.041000000     3.097000000
H     5.151000000    -6.547000000     2.613000000
O     1.731000000    -8.685000000    -3.310000000
H     1.326000000    -9.250000000    -2.652000000
H     1.304000000    -7.836000000    -3.191000000
O     4.636000000    -6.308000000    -4.923000000
H     5.495000000    -5.898000000    -5.027000000
H     4.241000000    -5.850000000    -4.181000000
O     8.264000000    -4.682000000     0.958000000
H     7.994000000    -4.199000000     1.739000000
H     7.550000000    -4.548000000     0.335000000
O     7.244000000     0.119000000    -0.403000000
H     7.026000000    -0.297000000    -1.237000000
H     7.344000000     1.047000000    -0.617000000
O     9.810000000    -2.635000000    -1.205000000
H    10.175000000    -2.809000000    -2.073000000
H     8.975000000    -3.104000000    -1.199000000
O     8.668000000    -0.737000000     1.813000000
H     7.964000000    -1.269000000     2.185000000
H     8.351000000    -0.493000000     0.944000000
O     3.249000000    -5.673000000    -2.419000000
H     3.266000000    -4.823000000    -1.978000000
H     3.436000000    -6.306000000    -1.725000000
O     6.293000000    -0.799000000    -2.957000000
H     6.655000000    -1.335000000    -3.663000000
H     5.525000000    -1.286000000    -2.656000000
O     8.103000000     0.976000000    -4.026000000
H     7.446000000     0.356000000    -3.710000000
H     8.340000000     1.488000000    -3.253000000
O     2.853000000    -7.199000000    -0.230000000
H     2.890000000    -7.006000000     0.707000000
H     1.984000000    -6.903000000    -0.501000000
O     7.956000000    -7.447000000    -3.040000000
H     7.358000000    -7.187000000    -2.339000000
H     7.693000000    -8.341000000    -3.260000000
O     7.374000000    -3.621000000    -1.586000000
H     7.340000000    -3.415000000    -2.520000000
H     6.512000000    -3.369000000    -1.254000000
O     6.893000000    -3.210000000    -4.217000000
H     5.944000000    -3.087000000    -4.231000000
H     7.044000000    -3.968000000    -4.781000000
O     6.578000000    -2.344000000     2.568000000
H     6.127000000    -3.188000000     2.606000000
H     5.874000000    -1.696000000     2.561000000
