218
-1434.81228
C    -0.861000000    -4.229000000     0.918000000
H    -1.568000000    -4.055000000     0.111000000
C    -1.144000000    -3.652000000     2.147000000
C    -0.306000000    -3.918000000     3.189000000
H    -0.336000000    -3.452000000     4.171000000
C    -2.344000000    -2.728000000     2.164000000
O    -3.548000000    -3.006000000     1.425000000
H    -1.841000000    -1.812000000     1.817000000
O    -2.749000000    -2.435000000     3.515000000
C    -2.714000000    -1.111000000     3.825000000
C    -1.584000000    -0.650000000     4.469000000
H    -0.764000000    -1.290000000     4.786000000
C    -1.407000000     0.712000000     4.547000000
O    -0.117000000     1.131000000     4.916000000
C    -2.325000000     1.676000000     4.144000000
C    -2.017000000     3.138000000     4.168000000
H    -2.832000000     3.832000000     4.382000000
C    -1.333000000     3.538000000     2.849000000
C    -2.095000000     4.095000000     1.814000000
H    -3.174000000     3.977000000     1.874000000
H    -1.338000000     3.337000000     4.999000000
C    -3.451000000     1.172000000     3.462000000
H    -4.124000000     1.864000000     2.960000000
C    -3.710000000    -0.237000000     3.382000000
C    -4.984000000    -0.636000000     2.610000000
H    -5.837000000     0.037000000     2.724000000
H    -5.343000000    -1.589000000     3.004000000
C    -4.679000000    -0.837000000     1.139000000
C    -5.160000000     0.131000000     0.234000000
H    -5.785000000     0.945000000     0.592000000
C    -3.992000000    -1.924000000     0.627000000
C    -3.803000000    -2.098000000    -0.727000000
H    -3.315000000    -2.998000000    -1.095000000
C    -4.230000000    -1.193000000    -1.639000000
O    -3.987000000    -1.429000000    -2.929000000
C    -2.856000000    -0.765000000    -3.476000000
C    -1.959000000    -1.538000000    -4.458000000
C    -0.974000000    -0.890000000    -5.241000000
H    -0.761000000     0.157000000    -5.041000000
C    -1.978000000    -2.952000000    -4.418000000
H    -2.700000000    -3.543000000    -3.862000000
O    -3.253000000     0.501000000    -4.100000000
H    -2.140000000    -0.551000000    -2.669000000
C    -4.874000000    -0.086000000    -1.142000000
C    -5.296000000     1.012000000    -2.090000000
H    -6.165000000     1.525000000    -1.674000000
H    -5.542000000     0.533000000    -3.040000000
C    -4.073000000     1.936000000    -2.282000000
C    -3.774000000     2.966000000    -1.419000000
H    -4.429000000     3.194000000    -0.581000000
C    -3.137000000     1.649000000    -3.276000000
C    -1.955000000     2.292000000    -3.390000000
H    -1.322000000     2.020000000    -4.231000000
C    -1.691000000     3.287000000    -2.491000000
O    -0.437000000     3.854000000    -2.707000000
C     0.544000000     3.581000000    -1.732000000
C     1.931000000     3.413000000    -2.371000000
C     2.055000000     3.079000000    -3.686000000
H     1.166000000     2.940000000    -4.296000000
C     3.127000000     3.618000000    -1.574000000
H     3.095000000     3.984000000    -0.551000000
O     0.559000000     4.516000000    -0.628000000
H     0.441000000     2.574000000    -1.302000000
C    -2.603000000     3.737000000    -1.518000000
C    -2.381000000     4.850000000    -0.520000000
H    -3.370000000     5.186000000    -0.200000000
H    -1.851000000     5.670000000    -1.009000000
C    -1.505000000     4.358000000     0.631000000
C    -0.122000000     4.186000000     0.463000000
C     0.662000000     3.831000000     1.596000000
H     1.709000000     3.546000000     1.528000000
C     0.001000000     3.482000000     2.757000000
O     0.799000000     2.969000000     3.783000000
C     0.815000000     1.580000000     3.928000000
H     0.641000000     1.161000000     2.926000000
C     2.253000000     1.026000000     4.244000000
C     2.413000000    -0.068000000     5.026000000
H     1.491000000    -0.439000000     5.467000000
C     3.310000000     1.645000000     3.608000000
H     3.178000000     2.420000000     2.857000000
C     4.613000000     1.217000000     3.860000000
O     5.626000000     1.920000000     3.254000000
C     4.848000000     0.210000000     4.767000000
H     5.856000000    -0.091000000     5.040000000
C     3.734000000    -0.427000000     5.393000000
O     3.922000000    -1.565000000     6.162000000
C     3.009000000    -2.507000000     6.176000000
C     2.734000000    -3.267000000     5.061000000
H     3.163000000    -2.822000000     4.167000000
C     2.361000000    -2.762000000     7.379000000
H     2.622000000    -2.137000000     8.229000000
C     1.567000000    -3.861000000     7.473000000
H     1.021000000    -4.006000000     8.402000000
C     1.380000000    -4.704000000     6.369000000
H     0.765000000    -5.598000000     6.431000000
C     1.887000000    -4.381000000     5.179000000
O     1.619000000    -5.223000000     4.109000000
C     0.798000000    -4.808000000     3.039000000
C     1.104000000    -5.295000000     1.746000000
H     1.956000000    -5.950000000     1.585000000
C     0.258000000    -5.024000000     0.687000000
O     0.670000000    -5.334000000    -0.620000000
C    -0.188000000    -5.870000000    -1.531000000
C    -0.245000000    -5.140000000    -2.759000000
H     0.328000000    -4.228000000    -2.907000000
C    -0.807000000    -7.120000000    -1.393000000
H    -0.822000000    -7.556000000    -0.397000000
C    -1.487000000    -7.686000000    -2.416000000
H    -1.927000000    -8.671000000    -2.288000000
C    -1.644000000    -6.876000000    -3.586000000
H    -2.194000000    -7.318000000    -4.413000000
C    -1.079000000    -5.625000000    -3.760000000
O    -1.211000000    -5.077000000    -5.026000000
C    -1.275000000    -3.722000000    -5.255000000
C    -0.260000000    -3.091000000    -6.008000000
H     0.366000000    -3.727000000    -6.630000000
C    -0.134000000    -1.696000000    -6.001000000
O     0.887000000    -1.179000000    -6.798000000
C     1.228000000     0.129000000    -6.986000000
C     2.012000000     0.861000000    -6.108000000
H     2.340000000     0.356000000    -5.203000000
C     0.818000000     0.708000000    -8.158000000
H     0.148000000     0.243000000    -8.876000000
C     1.296000000     1.926000000    -8.537000000
H     0.913000000     2.414000000    -9.430000000
C     2.232000000     2.603000000    -7.634000000
H     2.606000000     3.609000000    -7.805000000
C     2.471000000     2.123000000    -6.398000000
O     3.435000000     2.694000000    -5.623000000
C     3.332000000     2.836000000    -4.277000000
C     4.468000000     2.995000000    -3.483000000
H     5.444000000     2.772000000    -3.905000000
C     4.349000000     3.386000000    -2.160000000
O     5.477000000     3.617000000    -1.393000000
C     5.473000000     3.745000000     0.014000000
C     5.235000000     5.017000000     0.509000000
H     4.935000000     5.758000000    -0.227000000
C     5.144000000     5.248000000     1.868000000
H     5.055000000     6.281000000     2.195000000
C     5.401000000     4.188000000     2.781000000
H     5.388000000     4.342000000     3.857000000
C     5.458000000     2.924000000     2.321000000
C     5.613000000     2.715000000     0.956000000
H     5.634000000     1.691000000     0.590000000
C     1.747000000    -2.368000000    -0.727000000
H     2.194000000    -3.234000000    -0.244000000
C     0.950000000    -1.531000000     0.065000000
H     0.932000000    -1.677000000     1.142000000
C     0.252000000    -0.450000000    -0.451000000
C    -0.584000000     0.339000000     0.437000000
H    -0.516000000    -0.138000000     1.417000000
H    -0.293000000     1.391000000     0.462000000
H    -1.631000000     0.235000000     0.144000000
C     0.343000000    -0.183000000    -1.792000000
H    -0.234000000     0.625000000    -2.235000000
C     1.055000000    -1.084000000    -2.574000000
H     1.132000000    -0.769000000    -3.611000000
C     1.728000000    -2.158000000    -2.106000000
C     2.736000000    -2.984000000    -2.875000000
O     2.413000000    -3.326000000    -4.004000000
O     3.612000000    -3.602000000    -2.300000000
O     3.332000000    -3.331000000    -6.682000000
H     3.557000000    -4.243000000    -6.866000000
H     3.099000000    -3.325000000    -5.753000000
O     4.898000000    -5.540000000    -7.243000000
H     4.584000000    -6.351000000    -7.642000000
H     5.773000000    -5.414000000    -7.611000000
O     6.370000000    -0.472000000    -4.644000000
H     6.445000000    -0.207000000    -3.727000000
H     6.301000000    -1.426000000    -4.613000000
O     5.259000000    -7.541000000     1.137000000
H     5.319000000    -7.024000000     0.333000000
H     4.384000000    -7.928000000     1.108000000
O     6.204000000    -0.788000000     1.079000000
H     5.872000000    -1.549000000     0.602000000
H     6.281000000    -1.088000000     1.985000000
O     4.247000000    -8.432000000    -5.990000000
H     4.216000000    -7.944000000    -5.167000000
H     3.402000000    -8.880000000    -6.035000000
O     7.479000000    -4.905000000    -0.283000000
H     6.552000000    -4.832000000    -0.511000000
H     7.792000000    -4.001000000    -0.263000000
O     4.739000000    -5.963000000    -1.036000000
H     4.082000000    -6.556000000    -1.400000000
H     4.402000000    -5.087000000    -1.224000000
O     4.636000000    -0.967000000    -7.601000000
H     4.160000000    -1.730000000    -7.272000000
H     5.158000000    -0.671000000    -6.856000000
O     1.531000000    -5.780000000    -8.340000000
H     1.585000000    -6.213000000    -7.488000000
H     2.364000000    -5.982000000    -8.765000000
O     2.912000000    -6.008000000    -4.224000000
H     2.420000000    -5.190000000    -4.160000000
H     3.715000000    -5.844000000    -3.730000000
O     5.362000000    -2.763000000    -0.416000000
H     4.970000000    -3.271000000     0.295000000
H     4.874000000    -3.027000000    -1.196000000
O     7.077000000     0.464000000    -1.995000000
H     7.779000000    -0.180000000    -1.901000000
H     6.415000000     0.192000000    -1.359000000
O     3.199000000    -8.062000000    -2.183000000
H     2.754000000    -8.891000000    -2.358000000
H     3.084000000    -7.554000000    -2.986000000
O     7.156000000    -3.631000000    -7.551000000
H     7.776000000    -2.902000000    -7.582000000
H     6.526000000    -3.380000000    -6.876000000
O     1.041000000    -6.763000000    -5.905000000
H     0.266000000    -6.323000000    -5.555000000
H     1.768000000    -6.412000000    -5.391000000
O     5.523000000    -3.224000000    -3.919000000
H     5.778000000    -4.127000000    -4.108000000
H     4.791000000    -3.305000000    -3.308000000
O     8.187000000    -2.785000000    -3.392000000
H     7.240000000    -2.724000000    -3.265000000
H     8.340000000    -2.386000000    -4.248000000
O     6.251000000    -5.711000000    -4.528000000
H     5.807000000    -5.975000000    -5.333000000
H     6.396000000    -6.530000000    -4.054000000
