218
-1461.53796
C    -0.081000000    -4.904000000    -0.539000000
H    -0.610000000    -4.375000000    -1.328000000
C    -0.497000000    -4.725000000     0.760000000
C     0.226000000    -5.221000000     1.832000000
H    -0.116000000    -4.989000000     2.837000000
C    -1.661000000    -3.787000000     1.029000000
O    -2.824000000    -4.140000000     0.172000000
H    -1.309000000    -2.751000000     0.913000000
O    -2.162000000    -3.818000000     2.383000000
C    -2.360000000    -2.553000000     2.956000000
C    -1.292000000    -2.028000000     3.680000000
H    -0.461000000    -2.724000000     3.767000000
C    -1.454000000    -0.740000000     4.201000000
O    -0.317000000    -0.182000000     4.715000000
C    -2.682000000    -0.047000000     4.159000000
C    -2.788000000     1.341000000     4.812000000
H    -3.833000000     1.508000000     5.084000000
C    -2.341000000     2.428000000     3.774000000
C    -3.184000000     2.983000000     2.807000000
H    -4.137000000     2.471000000     2.699000000
H    -2.292000000     1.429000000     5.781000000
C    -3.662000000    -0.591000000     3.394000000
H    -4.679000000    -0.221000000     3.291000000
C    -3.511000000    -1.829000000     2.748000000
C    -4.610000000    -2.438000000     1.881000000
H    -5.583000000    -2.060000000     2.203000000
H    -4.782000000    -3.501000000     2.065000000
C    -4.413000000    -2.229000000     0.353000000
C    -4.906000000    -1.078000000    -0.227000000
H    -5.445000000    -0.307000000     0.317000000
C    -3.644000000    -3.119000000    -0.384000000
C    -3.407000000    -2.830000000    -1.772000000
H    -2.759000000    -3.497000000    -2.334000000
C    -3.871000000    -1.719000000    -2.355000000
O    -3.404000000    -1.384000000    -3.591000000
C    -2.345000000    -0.419000000    -3.694000000
C    -1.216000000    -0.907000000    -4.569000000
C    -0.302000000    -0.017000000    -5.124000000
H    -0.443000000     1.040000000    -4.909000000
C    -1.203000000    -2.234000000    -5.009000000
H    -1.939000000    -2.959000000    -4.671000000
O    -2.788000000     0.890000000    -4.064000000
H    -1.899000000    -0.354000000    -2.691000000
C    -4.601000000    -0.787000000    -1.590000000
C    -5.132000000     0.488000000    -2.149000000
H    -6.081000000     0.723000000    -1.663000000
H    -5.489000000     0.388000000    -3.176000000
C    -4.049000000     1.564000000    -2.037000000
C    -4.094000000     2.343000000    -0.862000000
H    -4.935000000     2.238000000    -0.181000000
C    -3.062000000     1.825000000    -2.973000000
C    -2.106000000     2.770000000    -2.620000000
H    -1.285000000     2.926000000    -3.316000000
C    -2.188000000     3.541000000    -1.474000000
O    -1.272000000     4.555000000    -1.342000000
C    -0.315000000     4.160000000    -0.380000000
C     1.127000000     4.406000000    -0.868000000
C     1.458000000     3.991000000    -2.140000000
H     0.806000000     3.604000000    -2.919000000
C     2.046000000     5.094000000    -0.063000000
H     1.807000000     5.462000000     0.932000000
O    -0.657000000     4.698000000     0.908000000
H    -0.263000000     3.077000000    -0.193000000
C    -3.225000000     3.348000000    -0.616000000
C    -3.455000000     4.230000000     0.578000000
H    -4.539000000     4.223000000     0.708000000
H    -3.203000000     5.267000000     0.346000000
C    -2.668000000     3.799000000     1.809000000
C    -1.287000000     4.123000000     1.877000000
C    -0.510000000     3.653000000     2.907000000
H     0.518000000     4.007000000     2.898000000
C    -1.007000000     2.828000000     3.856000000
O    -0.091000000     2.127000000     4.659000000
C     0.381000000     0.892000000     4.120000000
H     0.092000000     0.843000000     3.060000000
C     1.867000000     0.787000000     4.229000000
C     2.371000000    -0.474000000     4.021000000
H     1.761000000    -1.372000000     3.967000000
C     2.758000000     1.935000000     4.138000000
H     2.309000000     2.922000000     4.220000000
C     4.089000000     1.739000000     4.106000000
O     4.935000000     2.786000000     4.003000000
C     4.592000000     0.434000000     3.977000000
H     5.672000000     0.314000000     4.003000000
C     3.759000000    -0.677000000     3.759000000
O     4.275000000    -1.927000000     3.434000000
C     3.840000000    -3.180000000     3.950000000
C     3.306000000    -4.105000000     3.083000000
H     3.297000000    -3.886000000     2.018000000
C     3.943000000    -3.485000000     5.308000000
H     4.281000000    -2.698000000     5.977000000
C     3.332000000    -4.575000000     5.799000000
H     3.318000000    -4.776000000     6.867000000
C     2.820000000    -5.517000000     4.937000000
H     2.223000000    -6.322000000     5.356000000
C     2.792000000    -5.314000000     3.555000000
O     2.254000000    -6.287000000     2.738000000
C     1.471000000    -5.812000000     1.589000000
C     1.867000000    -6.010000000     0.277000000
H     2.809000000    -6.475000000    -0.002000000
C     1.082000000    -5.653000000    -0.827000000
O     1.443000000    -5.927000000    -2.102000000
C     0.565000000    -5.986000000    -3.082000000
C     0.592000000    -4.982000000    -3.998000000
H     1.320000000    -4.188000000    -3.850000000
C    -0.440000000    -6.956000000    -3.112000000
H    -0.522000000    -7.665000000    -2.292000000
C    -1.265000000    -6.939000000    -4.203000000
H    -2.086000000    -7.652000000    -4.196000000
C    -1.166000000    -6.033000000    -5.275000000
H    -1.891000000    -5.983000000    -6.083000000
C    -0.234000000    -5.063000000    -5.163000000
O    -0.107000000    -4.063000000    -6.139000000
C    -0.138000000    -2.729000000    -5.863000000
C     0.757000000    -1.790000000    -6.307000000
H     1.573000000    -2.210000000    -6.889000000
C     0.790000000    -0.441000000    -5.942000000
O     1.919000000     0.302000000    -6.199000000
C     1.867000000     1.671000000    -6.156000000
C     2.493000000     2.255000000    -5.071000000
H     3.154000000     1.661000000    -4.446000000
C     1.096000000     2.431000000    -7.019000000
H     0.601000000     1.923000000    -7.842000000
C     0.909000000     3.770000000    -6.769000000
H     0.293000000     4.275000000    -7.508000000
C     1.500000000     4.334000000    -5.624000000
H     1.299000000     5.363000000    -5.334000000
C     2.412000000     3.601000000    -4.892000000
O     3.141000000     4.201000000    -3.870000000
C     2.780000000     4.295000000    -2.572000000
C     3.751000000     4.795000000    -1.706000000
H     4.778000000     5.000000000    -1.998000000
C     3.370000000     5.259000000    -0.469000000
O     4.345000000     5.883000000     0.307000000
C     4.398000000     5.581000000     1.647000000
C     4.357000000     6.695000000     2.525000000
H     4.357000000     7.703000000     2.120000000
C     4.327000000     6.417000000     3.916000000
H     4.275000000     7.243000000     4.621000000
C     4.453000000     5.109000000     4.416000000
H     4.543000000     4.929000000     5.484000000
C     4.556000000     3.999000000     3.532000000
C     4.475000000     4.233000000     2.160000000
H     4.604000000     3.534000000     1.338000000
C     2.361000000    -1.047000000     0.350000000
H     2.977000000    -1.544000000     1.095000000
C     1.047000000    -0.858000000     0.725000000
H     0.681000000    -1.197000000     1.691000000
C     0.210000000    -0.222000000    -0.178000000
C    -1.236000000    -0.112000000     0.117000000
H    -1.518000000     0.902000000    -0.172000000
H    -1.812000000    -0.789000000    -0.518000000
H    -1.434000000    -0.073000000     1.191000000
C     0.592000000     0.161000000    -1.453000000
H    -0.133000000     0.522000000    -2.178000000
C     1.960000000     0.044000000    -1.752000000
H     2.315000000     0.424000000    -2.707000000
C     2.807000000    -0.590000000    -0.865000000
C     4.245000000    -0.834000000    -1.291000000
O     4.694000000    -0.247000000    -2.254000000
O     5.027000000    -1.468000000    -0.531000000
O     4.367000000    -1.318000000    -7.418000000
H     4.866000000    -2.134000000    -7.374000000
H     4.173000000    -1.106000000    -6.505000000
O     5.132000000     2.251000000    -1.664000000
H     4.192000000     2.429000000    -1.654000000
H     5.198000000     1.324000000    -1.896000000
O     7.766000000     0.553000000    -3.181000000
H     7.583000000    -0.299000000    -3.578000000
H     7.572000000     0.430000000    -2.251000000
O     5.882000000    -3.180000000     1.273000000
H     6.391000000    -2.579000000     1.817000000
H     5.432000000    -2.613000000     0.646000000
O    10.353000000     2.153000000    -1.239000000
H     9.399000000     2.143000000    -1.166000000
H    10.524000000     1.986000000    -2.166000000
O     7.806000000    -0.922000000    -7.131000000
H     7.616000000    -1.209000000    -6.238000000
H     7.999000000     0.012000000    -7.046000000
O     5.766000000    -4.430000000    -4.337000000
H     6.339000000    -5.090000000    -4.728000000
H     4.939000000    -4.889000000    -4.189000000
O     7.795000000     2.906000000    -1.301000000
H     7.672000000     3.729000000    -0.828000000
H     6.907000000     2.581000000    -1.452000000
O     7.686000000    -0.798000000    -0.662000000
H     7.933000000    -1.605000000    -1.114000000
H     6.750000000    -0.899000000    -0.486000000
O     7.763000000     0.972000000     1.495000000
H     6.967000000     1.102000000     0.979000000
H     8.430000000     0.737000000     0.851000000
O     7.571000000     3.219000000    -4.498000000
H     8.015000000     2.658000000    -3.862000000
H     6.701000000     3.361000000    -4.127000000
O     7.559000000    -1.477000000     2.597000000
H     7.512000000    -0.588000000     2.247000000
H     8.450000000    -1.766000000     2.400000000
O     9.294000000    -2.847000000    -2.065000000
H     9.531000000    -2.504000000    -2.927000000
H     8.360000000    -3.045000000    -2.135000000
O     4.172000000    -1.246000000    -4.683000000
H     3.330000000    -0.801000000    -4.584000000
H     4.554000000    -1.234000000    -3.805000000
O     5.735000000     1.024000000    -5.218000000
H     5.429000000     0.427000000    -4.535000000
H     6.672000000     1.122000000    -5.047000000
O     7.616000000    -2.082000000    -4.547000000
H     6.842000000    -2.646000000    -4.537000000
H     8.328000000    -2.659000000    -4.823000000
O     6.967000000    -4.210000000     3.820000000
H     6.477000000    -4.270000000     3.000000000
H     7.037000000    -3.271000000     3.989000000
O     6.280000000    -5.513000000    -0.288000000
H     6.483000000    -5.079000000    -1.117000000
H     6.053000000    -4.799000000     0.307000000
O     6.429000000    -3.303000000    -1.928000000
H     5.767000000    -3.705000000    -2.491000000
H     5.968000000    -2.589000000    -1.488000000
