218
-1468.40181
C     0.591000000    -4.996000000    -0.904000000
H    -0.060000000    -4.731000000    -1.733000000
C     0.413000000    -4.602000000     0.462000000
C     1.382000000    -4.859000000     1.425000000
H     1.252000000    -4.636000000     2.481000000
C    -0.890000000    -3.918000000     0.890000000
O    -2.042000000    -4.324000000     0.154000000
H    -0.673000000    -2.841000000     0.828000000
O    -1.219000000    -4.171000000     2.235000000
C    -1.660000000    -3.058000000     2.932000000
C    -0.758000000    -2.423000000     3.716000000
H     0.266000000    -2.775000000     3.816000000
C    -1.086000000    -1.189000000     4.285000000
O    -0.095000000    -0.463000000     4.917000000
C    -2.396000000    -0.682000000     4.206000000
C    -2.884000000     0.630000000     4.752000000
H    -3.963000000     0.718000000     4.900000000
C    -2.489000000     1.807000000     3.917000000
C    -3.441000000     2.310000000     2.980000000
H    -4.477000000     2.007000000     3.115000000
H    -2.358000000     0.770000000     5.698000000
C    -3.345000000    -1.441000000     3.522000000
H    -4.325000000    -1.095000000     3.203000000
C    -2.978000000    -2.576000000     2.824000000
C    -4.046000000    -3.268000000     2.046000000
H    -5.044000000    -3.029000000     2.418000000
H    -3.952000000    -4.352000000     2.132000000
C    -3.951000000    -2.831000000     0.558000000
C    -4.820000000    -1.803000000     0.022000000
H    -5.578000000    -1.320000000     0.633000000
C    -2.999000000    -3.444000000    -0.274000000
C    -2.982000000    -3.092000000    -1.633000000
H    -2.276000000    -3.590000000    -2.292000000
C    -3.790000000    -2.129000000    -2.145000000
O    -3.478000000    -1.764000000    -3.385000000
C    -2.605000000    -0.648000000    -3.606000000
C    -1.465000000    -0.843000000    -4.689000000
C    -0.734000000     0.208000000    -5.099000000
H    -0.975000000     1.201000000    -4.728000000
C    -1.092000000    -2.194000000    -4.940000000
H    -1.535000000    -3.043000000    -4.425000000
O    -3.357000000     0.581000000    -3.823000000
H    -2.039000000    -0.515000000    -2.673000000
C    -4.649000000    -1.437000000    -1.340000000
C    -5.386000000    -0.207000000    -1.878000000
H    -6.343000000    -0.149000000    -1.356000000
H    -5.680000000    -0.242000000    -2.929000000
C    -4.566000000     1.023000000    -1.637000000
C    -4.700000000     1.769000000    -0.472000000
H    -5.403000000     1.483000000     0.306000000
C    -3.635000000     1.366000000    -2.671000000
C    -2.813000000     2.393000000    -2.411000000
H    -2.074000000     2.709000000    -3.143000000
C    -2.862000000     3.164000000    -1.274000000
O    -1.885000000     4.188000000    -1.098000000
C    -0.780000000     4.101000000    -0.116000000
C     0.528000000     4.730000000    -0.654000000
C     1.031000000     4.234000000    -1.851000000
H     0.368000000     3.581000000    -2.413000000
C     1.343000000     5.441000000     0.266000000
H     0.914000000     5.892000000     1.157000000
O    -1.251000000     4.664000000     1.109000000
H    -0.486000000     3.047000000    -0.005000000
C    -3.827000000     2.876000000    -0.285000000
C    -3.922000000     3.761000000     0.907000000
H    -4.957000000     3.769000000     1.254000000
H    -3.669000000     4.785000000     0.626000000
C    -3.043000000     3.296000000     2.054000000
C    -1.759000000     3.810000000     2.084000000
C    -0.902000000     3.388000000     3.073000000
H     0.144000000     3.670000000     2.990000000
C    -1.222000000     2.353000000     3.932000000
O    -0.171000000     1.866000000     4.645000000
C     0.456000000     0.654000000     4.181000000
H     0.092000000     0.541000000     3.150000000
C     1.947000000     0.704000000     4.171000000
C     2.703000000    -0.394000000     3.823000000
H     2.137000000    -1.301000000     3.628000000
C     2.567000000     1.916000000     4.336000000
H     1.978000000     2.773000000     4.650000000
C     4.005000000     2.033000000     4.122000000
O     4.639000000     3.249000000     4.245000000
C     4.757000000     0.893000000     3.793000000
H     5.806000000     0.953000000     3.515000000
C     4.085000000    -0.301000000     3.690000000
O     4.952000000    -1.312000000     3.367000000
C     4.603000000    -2.628000000     3.618000000
C     4.470000000    -3.520000000     2.555000000
H     4.679000000    -3.066000000     1.590000000
C     4.158000000    -2.967000000     4.887000000
H     4.269000000    -2.257000000     5.702000000
C     3.729000000    -4.249000000     5.146000000
H     3.412000000    -4.616000000     6.119000000
C     3.723000000    -5.239000000     4.174000000
H     3.401000000    -6.248000000     4.418000000
C     3.975000000    -4.810000000     2.843000000
O     3.567000000    -5.661000000     1.845000000
C     2.591000000    -5.392000000     0.948000000
C     2.757000000    -5.846000000    -0.384000000
H     3.728000000    -6.278000000    -0.615000000
C     1.742000000    -5.740000000    -1.301000000
O     1.969000000    -6.163000000    -2.616000000
C     1.072000000    -5.966000000    -3.630000000
C     0.945000000    -4.757000000    -4.358000000
H     1.546000000    -3.880000000    -4.129000000
C     0.375000000    -7.081000000    -4.033000000
H     0.463000000    -7.997000000    -3.454000000
C    -0.383000000    -7.004000000    -5.249000000
H    -1.015000000    -7.859000000    -5.476000000
C    -0.441000000    -5.875000000    -5.994000000
H    -0.975000000    -5.848000000    -6.940000000
C     0.293000000    -4.771000000    -5.590000000
O     0.218000000    -3.647000000    -6.328000000
C    -0.081000000    -2.394000000    -5.844000000
C     0.537000000    -1.323000000    -6.505000000
H     1.217000000    -1.535000000    -7.327000000
C     0.236000000     0.027000000    -6.087000000
O     1.082000000     1.014000000    -6.461000000
C     0.984000000     2.325000000    -6.015000000
C     1.960000000     2.807000000    -5.128000000
H     2.807000000     2.143000000    -4.974000000
C    -0.134000000     3.147000000    -6.327000000
H    -0.854000000     2.826000000    -7.075000000
C    -0.258000000     4.454000000    -5.747000000
H    -1.096000000     5.099000000    -5.999000000
C     0.751000000     4.859000000    -4.904000000
H     0.794000000     5.890000000    -4.564000000
C     1.784000000     4.046000000    -4.536000000
O     2.663000000     4.481000000    -3.610000000
C     2.214000000     4.696000000    -2.323000000
C     3.051000000     5.432000000    -1.491000000
H     4.071000000     5.636000000    -1.808000000
C     2.650000000     5.733000000    -0.162000000
O     3.554000000     6.394000000     0.629000000
C     3.795000000     6.110000000     1.942000000
C     3.558000000     7.145000000     2.831000000
H     3.100000000     8.034000000     2.405000000
C     3.685000000     6.909000000     4.155000000
H     3.594000000     7.755000000     4.832000000
C     4.059000000     5.608000000     4.630000000
H     4.335000000     5.349000000     5.648000000
C     4.182000000     4.485000000     3.760000000
C     4.114000000     4.804000000     2.384000000
H     4.282000000     4.039000000     1.631000000
C     2.446000000    -0.471000000    -0.108000000
H     3.266000000    -0.941000000     0.428000000
C     1.122000000    -0.628000000     0.418000000
H     0.896000000    -1.158000000     1.340000000
C     0.112000000    -0.054000000    -0.255000000
C    -1.287000000    -0.091000000     0.345000000
H    -1.996000000     0.286000000    -0.395000000
H    -1.558000000    -1.111000000     0.623000000
H    -1.422000000     0.430000000     1.295000000
C     0.252000000     0.449000000    -1.509000000
H    -0.540000000     0.801000000    -2.164000000
C     1.501000000     0.512000000    -2.101000000
H     1.647000000     0.850000000    -3.123000000
C     2.595000000     0.064000000    -1.382000000
C     4.032000000     0.295000000    -1.911000000
O     4.126000000     0.765000000    -3.046000000
O     4.988000000     0.161000000    -1.157000000
O     5.589000000     3.527000000    -1.137000000
H     6.440000000     3.618000000    -1.566000000
H     5.780000000     3.056000000    -0.325000000
O     8.143000000     0.203000000    -5.848000000
H     7.967000000     1.144000000    -5.827000000
H     7.424000000    -0.186000000    -5.350000000
O     3.067000000     2.261000000    -8.676000000
H     2.813000000     1.709000000    -9.416000000
H     3.056000000     1.672000000    -7.922000000
O     6.008000000    -2.689000000    -1.066000000
H     6.556000000    -2.231000000    -1.704000000
H     5.321000000    -2.060000000    -0.846000000
O     5.312000000    -0.116000000    -7.488000000
H     5.358000000    -0.387000000    -6.571000000
H     5.125000000    -0.924000000    -7.967000000
O     8.334000000     3.996000000    -1.830000000
H     8.012000000     4.839000000    -2.150000000
H     8.993000000     3.732000000    -2.472000000
O     6.366000000    -4.903000000    -3.079000000
H     7.142000000    -4.343000000    -3.095000000
H     5.640000000    -4.302000000    -2.911000000
O     9.889000000     0.117000000    -2.808000000
H    10.639000000     0.711000000    -2.803000000
H     9.162000000     0.652000000    -3.128000000
O     5.067000000     1.670000000     0.925000000
H     4.187000000     2.020000000     1.062000000
H     4.956000000     1.001000000     0.249000000
O     7.310000000     2.477000000     2.083000000
H     6.489000000     2.276000000     1.634000000
H     7.968000000     2.480000000     1.389000000
O     5.418000000     3.020000000    -3.926000000
H     4.846000000     2.308000000    -3.638000000
H     4.836000000     3.775000000    -4.012000000
O     8.565000000    -0.608000000     2.339000000
H     7.698000000    -0.319000000     2.054000000
H     9.158000000    -0.295000000     1.655000000
O     9.201000000     0.992000000    -0.010000000
H     9.996000000     0.572000000    -0.340000000
H     8.603000000     0.993000000    -0.757000000
O     7.241000000     2.810000000    -5.811000000
H     6.590000000     2.851000000    -5.110000000
H     7.395000000     3.725000000    -6.048000000
O     4.398000000    -3.290000000    -5.002000000
H     3.700000000    -3.942000000    -5.073000000
H     4.754000000    -3.224000000    -5.888000000
O     5.780000000    -0.852000000    -4.576000000
H     5.286000000    -1.671000000    -4.540000000
H     5.196000000    -0.204000000    -4.181000000
O     7.764000000    -1.839000000    -2.729000000
H     8.438000000    -1.160000000    -2.766000000
H     7.171000000    -1.627000000    -3.451000000
O     7.966000000    -4.686000000    -0.147000000
H     8.455000000    -4.933000000    -0.932000000
H     7.329000000    -4.042000000    -0.456000000
O     7.448000000     1.289000000    -2.517000000
H     6.676000000     0.901000000    -2.104000000
H     7.131000000     2.112000000    -2.891000000
