218
-1445.39081
C     1.006000000    -4.965000000    -2.269000000
H     0.134000000    -4.970000000    -2.918000000
C     0.945000000    -4.666000000    -0.887000000
C     2.116000000    -4.531000000    -0.145000000
H     2.026000000    -4.408000000     0.931000000
C    -0.467000000    -4.396000000    -0.341000000
O    -1.473000000    -4.803000000    -1.204000000
H    -0.441000000    -3.304000000    -0.210000000
O    -0.757000000    -4.881000000     0.932000000
C    -1.307000000    -4.000000000     1.805000000
C    -0.497000000    -3.494000000     2.734000000
H     0.564000000    -3.729000000     2.703000000
C    -0.978000000    -2.530000000     3.627000000
O    -0.034000000    -1.827000000     4.451000000
C    -2.327000000    -2.270000000     3.668000000
C    -2.877000000    -1.190000000     4.595000000
H    -3.923000000    -1.362000000     4.857000000
C    -2.784000000     0.229000000     4.117000000
C    -3.765000000     0.862000000     3.313000000
H    -4.616000000     0.251000000     3.025000000
H    -2.408000000    -1.317000000     5.573000000
C    -3.157000000    -2.967000000     2.846000000
H    -4.240000000    -2.937000000     2.928000000
C    -2.649000000    -3.809000000     1.849000000
C    -3.595000000    -4.358000000     0.752000000
H    -4.596000000    -4.258000000     1.177000000
H    -3.446000000    -5.430000000     0.605000000
C    -3.443000000    -3.628000000    -0.586000000
C    -4.357000000    -2.573000000    -0.781000000
H    -5.050000000    -2.157000000    -0.055000000
C    -2.466000000    -3.916000000    -1.523000000
C    -2.335000000    -3.091000000    -2.647000000
H    -1.429000000    -3.178000000    -3.241000000
C    -3.181000000    -2.012000000    -2.863000000
O    -2.846000000    -1.032000000    -3.782000000
C    -2.150000000     0.180000000    -3.499000000
C    -1.115000000     0.493000000    -4.526000000
C    -0.516000000     1.755000000    -4.380000000
H    -1.026000000     2.552000000    -3.845000000
C    -0.464000000    -0.508000000    -5.248000000
H    -0.845000000    -1.520000000    -5.359000000
O    -3.131000000     1.221000000    -3.334000000
H    -1.698000000    -0.007000000    -2.514000000
C    -4.121000000    -1.722000000    -1.840000000
C    -5.058000000    -0.502000000    -1.955000000
H    -6.039000000    -0.809000000    -1.585000000
H    -5.271000000    -0.273000000    -3.001000000
C    -4.482000000     0.745000000    -1.332000000
C    -4.788000000     1.134000000     0.001000000
H    -5.478000000     0.582000000     0.634000000
C    -3.579000000     1.539000000    -1.995000000
C    -3.058000000     2.755000000    -1.486000000
H    -2.511000000     3.436000000    -2.132000000
C    -3.358000000     3.162000000    -0.168000000
O    -2.737000000     4.217000000     0.392000000
C    -1.688000000     4.083000000     1.338000000
C    -0.592000000     5.132000000     1.020000000
C    -0.320000000     5.502000000    -0.308000000
H    -1.047000000     5.249000000    -1.076000000
C     0.375000000     5.465000000     1.991000000
H     0.308000000     4.973000000     2.958000000
O    -2.227000000     4.164000000     2.631000000
H    -1.216000000     3.117000000     1.108000000
C    -4.311000000     2.361000000     0.481000000
C    -4.727000000     2.680000000     1.953000000
H    -5.679000000     2.267000000     2.293000000
H    -4.808000000     3.765000000     2.054000000
C    -3.597000000     2.175000000     2.851000000
C    -2.421000000     2.911000000     3.185000000
C    -1.428000000     2.281000000     3.928000000
H    -0.508000000     2.801000000     4.183000000
C    -1.580000000     0.947000000     4.323000000
O    -0.409000000     0.449000000     4.791000000
C     0.281000000    -0.488000000     4.030000000
H     0.073000000    -0.411000000     2.953000000
C     1.774000000    -0.315000000     4.178000000
C     2.586000000    -1.517000000     4.222000000
H     2.236000000    -2.546000000     4.198000000
C     2.386000000     0.990000000     4.078000000
H     1.789000000     1.849000000     3.783000000
C     3.740000000     1.062000000     4.161000000
O     4.353000000     2.257000000     3.983000000
C     4.523000000    -0.045000000     4.308000000
H     5.608000000    -0.002000000     4.262000000
C     3.972000000    -1.335000000     4.284000000
O     4.680000000    -2.489000000     4.445000000
C     4.738000000    -3.472000000     3.494000000
C     4.501000000    -3.378000000     2.134000000
H     4.397000000    -2.429000000     1.616000000
C     4.789000000    -4.777000000     4.069000000
H     5.133000000    -4.838000000     5.099000000
C     4.692000000    -5.909000000     3.355000000
H     4.773000000    -6.878000000     3.841000000
C     4.622000000    -5.813000000     1.990000000
H     4.451000000    -6.649000000     1.317000000
C     4.508000000    -4.533000000     1.352000000
O     4.448000000    -4.434000000     0.001000000
C     3.348000000    -4.706000000    -0.741000000
C     3.378000000    -4.924000000    -2.123000000
H     4.367000000    -4.906000000    -2.573000000
C     2.203000000    -5.078000000    -2.883000000
O     2.273000000    -5.316000000    -4.232000000
C     1.641000000    -4.625000000    -5.230000000
C     1.813000000    -3.265000000    -5.377000000
H     2.306000000    -2.690000000    -4.598000000
C     1.126000000    -5.380000000    -6.349000000
H     1.015000000    -6.456000000    -6.240000000
C     0.662000000    -4.678000000    -7.515000000
H     0.181000000    -5.275000000    -8.287000000
C     0.754000000    -3.278000000    -7.587000000
H     0.407000000    -2.797000000    -8.498000000
C     1.329000000    -2.610000000    -6.515000000
O     1.443000000    -1.236000000    -6.736000000
C     0.720000000    -0.246000000    -5.970000000
C     1.264000000     1.053000000    -5.940000000
H     2.190000000     1.333000000    -6.437000000
C     0.698000000     2.013000000    -5.134000000
O     1.315000000     3.256000000    -5.067000000
C     0.793000000     4.401000000    -4.590000000
C     1.182000000     4.971000000    -3.432000000
H     1.937000000     4.455000000    -2.845000000
C    -0.090000000     5.072000000    -5.405000000
H    -0.284000000     4.657000000    -6.391000000
C    -0.666000000     6.277000000    -5.083000000
H    -1.409000000     6.829000000    -5.654000000
C    -0.423000000     6.815000000    -3.783000000
H    -0.900000000     7.747000000    -3.492000000
C     0.606000000     6.158000000    -3.032000000
O     1.009000000     6.799000000    -1.899000000
C     0.800000000     6.265000000    -0.660000000
C     1.740000000     6.673000000     0.263000000
H     2.562000000     7.324000000    -0.022000000
C     1.515000000     6.233000000     1.638000000
O     2.451000000     6.475000000     2.703000000
C     2.924000000     5.559000000     3.616000000
C     2.740000000     5.849000000     5.014000000
H     2.513000000     6.841000000     5.397000000
C     3.007000000     4.922000000     5.989000000
H     2.788000000     5.106000000     7.037000000
C     3.491000000     3.646000000     5.667000000
H     3.714000000     2.964000000     6.484000000
C     3.712000000     3.407000000     4.301000000
C     3.337000000     4.282000000     3.242000000
H     3.483000000     4.027000000     2.196000000
C     2.310000000    -0.759000000    -0.460000000
H     3.075000000    -1.506000000    -0.266000000
C     1.043000000    -0.942000000     0.125000000
H     0.882000000    -1.738000000     0.847000000
C     0.006000000    -0.049000000    -0.152000000
C    -1.337000000    -0.329000000     0.440000000
H    -2.185000000    -0.256000000    -0.244000000
H    -1.393000000    -1.343000000     0.842000000
H    -1.369000000     0.325000000     1.313000000
C     0.240000000     1.072000000    -0.918000000
H    -0.581000000     1.772000000    -1.047000000
C     1.481000000     1.265000000    -1.570000000
H     1.614000000     2.122000000    -2.225000000
C     2.556000000     0.438000000    -1.193000000
C     3.966000000     0.817000000    -1.615000000
O     4.210000000     1.830000000    -2.272000000
O     4.911000000     0.008000000    -1.399000000
O     6.657000000    -0.777000000     0.290000000
H     6.657000000    -1.682000000    -0.021000000
H     6.061000000    -0.319000000    -0.303000000
O     7.566000000     4.687000000    -2.679000000
H     7.593000000     5.379000000    -2.018000000
H     7.628000000     3.874000000    -2.176000000
O     3.418000000     5.453000000    -6.388000000
H     4.308000000     5.658000000    -6.674000000
H     3.498000000     4.607000000    -5.946000000
O     3.969000000     3.106000000    -4.599000000
H     4.078000000     2.742000000    -3.720000000
H     3.073000000     2.874000000    -4.844000000
O     3.440000000     3.982000000    -0.442000000
H     3.284000000     3.323000000     0.235000000
H     4.068000000     3.570000000    -1.037000000
O    10.701000000     2.912000000    -1.030000000
H    10.534000000     2.153000000    -1.589000000
H     9.965000000     2.926000000    -0.419000000
O     6.138000000     3.134000000    -6.377000000
H     6.824000000     2.752000000    -5.829000000
H     5.352000000     3.104000000    -5.831000000
O     8.607000000     1.141000000     0.065000000
H     7.936000000     0.490000000     0.270000000
H     9.425000000     0.644000000     0.048000000
O     9.180000000    -1.601000000     3.078000000
H     8.961000000    -2.000000000     2.236000000
H     9.067000000    -2.308000000     3.714000000
O     6.469000000     1.070000000    -3.832000000
H     5.963000000     1.414000000    -3.096000000
H     6.332000000     0.123000000    -3.795000000
O     9.050000000     1.442000000    -7.450000000
H     8.795000000     1.407000000    -6.528000000
H     9.921000000     1.840000000    -7.442000000
O     5.759000000    -3.787000000    -4.290000000
H     5.858000000    -3.678000000    -5.236000000
H     5.491000000    -4.699000000    -4.180000000
O     6.561000000    -2.068000000    -2.642000000
H     6.118000000    -2.708000000    -3.200000000
H     5.870000000    -1.458000000    -2.382000000
O     5.561000000     5.998000000     0.087000000
H     4.926000000     5.422000000    -0.338000000
H     5.253000000     6.882000000    -0.111000000
O     8.578000000    -3.955000000    -2.138000000
H     7.861000000    -3.338000000    -1.997000000
H     8.149000000    -4.759000000    -2.432000000
O     5.009000000     5.774000000    -3.555000000
H     5.862000000     5.455000000    -3.259000000
H     4.439000000     5.006000000    -3.518000000
O     9.285000000     1.717000000    -4.449000000
H     8.356000000     1.869000000    -4.275000000
H     9.448000000     0.832000000    -4.123000000
O     6.532000000     2.694000000    -1.031000000
H     7.188000000     2.113000000    -0.646000000
H     5.778000000     2.128000000    -1.195000000
O     7.951000000     6.137000000    -4.774000000
H     7.803000000     5.477000000    -4.096000000
H     8.545000000     5.714000000    -5.394000000
