218
-1453.74881
C     1.646000000    -4.702000000    -1.783000000
H     0.890000000    -4.410000000    -2.508000000
C     1.197000000    -4.737000000    -0.440000000
C     2.093000000    -5.058000000     0.549000000
H     1.758000000    -5.105000000     1.582000000
C    -0.273000000    -4.432000000    -0.085000000
O    -1.246000000    -4.900000000    -1.055000000
H    -0.307000000    -3.333000000    -0.113000000
O    -0.532000000    -4.851000000     1.263000000
C    -1.212000000    -4.001000000     2.075000000
C    -0.451000000    -3.270000000     2.888000000
H     0.600000000    -3.508000000     3.026000000
C    -0.954000000    -2.138000000     3.565000000
O    -0.159000000    -1.516000000     4.459000000
C    -2.340000000    -1.887000000     3.455000000
C    -2.956000000    -0.766000000     4.355000000
H    -4.041000000    -0.889000000     4.379000000
C    -2.650000000     0.593000000     3.730000000
C    -3.591000000     1.181000000     2.899000000
H    -4.513000000     0.643000000     2.689000000
H    -2.526000000    -0.764000000     5.358000000
C    -3.175000000    -2.773000000     2.716000000
H    -4.235000000    -2.591000000     2.561000000
C    -2.638000000    -3.806000000     1.996000000
C    -3.422000000    -4.579000000     0.935000000
H    -4.423000000    -4.527000000     1.369000000
H    -3.169000000    -5.636000000     0.832000000
C    -3.366000000    -3.815000000    -0.383000000
C    -4.183000000    -2.700000000    -0.621000000
H    -5.015000000    -2.443000000     0.029000000
C    -2.332000000    -4.057000000    -1.290000000
C    -2.243000000    -3.263000000    -2.437000000
H    -1.527000000    -3.535000000    -3.208000000
C    -3.144000000    -2.278000000    -2.741000000
O    -2.903000000    -1.530000000    -3.906000000
C    -2.271000000    -0.179000000    -3.708000000
C    -1.253000000     0.174000000    -4.781000000
C    -1.240000000     1.428000000    -5.428000000
H    -2.038000000     2.167000000    -5.420000000
C    -0.137000000    -0.629000000    -4.895000000
H    -0.116000000    -1.615000000    -4.438000000
O    -3.244000000     0.823000000    -3.678000000
H    -1.749000000    -0.249000000    -2.742000000
C    -4.110000000    -1.945000000    -1.782000000
C    -5.057000000    -0.711000000    -1.995000000
H    -6.042000000    -0.913000000    -1.570000000
H    -5.205000000    -0.582000000    -3.069000000
C    -4.421000000     0.575000000    -1.543000000
C    -4.763000000     1.142000000    -0.326000000
H    -5.528000000     0.645000000     0.264000000
C    -3.596000000     1.273000000    -2.435000000
C    -3.036000000     2.460000000    -2.064000000
H    -2.444000000     3.019000000    -2.784000000
C    -3.225000000     2.947000000    -0.742000000
O    -2.535000000     4.023000000    -0.387000000
C    -1.434000000     3.895000000     0.594000000
C    -0.174000000     4.610000000     0.222000000
C     0.124000000     4.913000000    -1.127000000
H    -0.566000000     4.616000000    -1.912000000
C     0.737000000     5.070000000     1.201000000
H     0.560000000     4.764000000     2.228000000
O    -1.920000000     4.235000000     1.863000000
H    -1.139000000     2.836000000     0.608000000
C    -4.176000000     2.354000000     0.125000000
C    -4.431000000     2.910000000     1.463000000
H    -5.413000000     2.557000000     1.785000000
H    -4.585000000     3.991000000     1.467000000
C    -3.416000000     2.488000000     2.524000000
C    -2.198000000     3.148000000     2.637000000
C    -1.255000000     2.674000000     3.553000000
H    -0.370000000     3.295000000     3.665000000
C    -1.522000000     1.404000000     4.043000000
O    -0.474000000     0.836000000     4.756000000
C     0.283000000    -0.178000000     4.085000000
H     0.114000000     0.004000000     3.013000000
C     1.743000000     0.008000000     4.337000000
C     2.575000000    -1.096000000     4.214000000
H     2.075000000    -2.050000000     4.061000000
C     2.325000000     1.226000000     4.497000000
H     1.620000000     2.052000000     4.542000000
C     3.691000000     1.398000000     4.616000000
O     4.223000000     2.698000000     4.682000000
C     4.516000000     0.285000000     4.549000000
H     5.595000000     0.422000000     4.536000000
C     3.974000000    -0.998000000     4.329000000
O     4.821000000    -2.089000000     4.151000000
C     4.382000000    -3.344000000     3.995000000
C     4.531000000    -3.916000000     2.685000000
H     4.922000000    -3.236000000     1.933000000
C     4.095000000    -4.136000000     5.083000000
H     4.042000000    -3.594000000     6.024000000
C     3.833000000    -5.515000000     4.857000000
H     3.493000000    -6.025000000     5.755000000
C     3.739000000    -5.972000000     3.578000000
H     3.350000000    -6.964000000     3.364000000
C     4.205000000    -5.213000000     2.532000000
O     4.324000000    -5.800000000     1.247000000
C     3.439000000    -5.400000000     0.236000000
C     3.825000000    -5.408000000    -1.143000000
H     4.781000000    -5.780000000    -1.503000000
C     2.953000000    -5.048000000    -2.135000000
O     3.387000000    -5.090000000    -3.450000000
C     2.623000000    -4.470000000    -4.510000000
C     2.689000000    -3.146000000    -4.718000000
H     3.428000000    -2.540000000    -4.201000000
C     1.801000000    -5.276000000    -5.292000000
H     1.917000000    -6.327000000    -5.040000000
C     0.979000000    -4.727000000    -6.211000000
H     0.298000000    -5.351000000    -6.783000000
C     0.978000000    -3.336000000    -6.397000000
H     0.457000000    -2.990000000    -7.286000000
C     1.847000000    -2.542000000    -5.650000000
O     1.986000000    -1.152000000    -5.843000000
C     0.932000000    -0.285000000    -5.676000000
C     1.000000000     0.982000000    -6.256000000
H     1.930000000     1.163000000    -6.788000000
C    -0.084000000     1.877000000    -6.057000000
O    -0.205000000     3.157000000    -6.475000000
C    -0.210000000     4.334000000    -5.685000000
C     0.685000000     4.571000000    -4.646000000
H     1.424000000     3.799000000    -4.448000000
C    -1.124000000     5.402000000    -6.010000000
H    -1.824000000     5.321000000    -6.838000000
C    -1.101000000     6.605000000    -5.322000000
H    -1.674000000     7.506000000    -5.527000000
C    -0.103000000     6.714000000    -4.374000000
H    -0.139000000     7.583000000    -3.723000000
C     0.651000000     5.732000000    -3.902000000
O     1.563000000     5.939000000    -2.853000000
C     1.276000000     5.699000000    -1.517000000
C     2.112000000     6.167000000    -0.441000000
H     3.030000000     6.698000000    -0.678000000
C     1.905000000     5.801000000     0.858000000
O     2.721000000     6.242000000     1.858000000
C     2.784000000     5.616000000     3.115000000
C     2.027000000     6.136000000     4.212000000
H     1.337000000     6.968000000     4.105000000
C     2.054000000     5.529000000     5.452000000
H     1.447000000     5.980000000     6.233000000
C     2.757000000     4.312000000     5.546000000
H     2.729000000     3.719000000     6.457000000
C     3.508000000     3.837000000     4.524000000
C     3.535000000     4.459000000     3.263000000
H     4.177000000     4.013000000     2.507000000
C     2.510000000    -0.819000000    -0.884000000
H     3.254000000    -1.607000000    -0.796000000
C     1.274000000    -0.908000000    -0.208000000
H     1.171000000    -1.783000000     0.429000000
C     0.240000000     0.030000000    -0.490000000
C    -0.973000000    -0.008000000     0.397000000
H    -1.067000000    -0.967000000     0.910000000
H    -0.925000000     0.815000000     1.113000000
H    -1.916000000     0.115000000    -0.139000000
C     0.573000000     1.191000000    -1.137000000
H    -0.134000000     2.014000000    -1.216000000
C     1.862000000     1.428000000    -1.694000000
H     2.159000000     2.390000000    -2.103000000
C     2.839000000     0.376000000    -1.611000000
C     4.119000000     0.506000000    -2.320000000
O     4.270000000     1.423000000    -3.110000000
O     4.980000000    -0.346000000    -2.315000000
O     2.298000000     1.941000000     1.250000000
H     2.211000000     2.766000000     0.771000000
H     2.020000000     1.271000000     0.625000000
O     6.988000000     4.822000000    -3.476000000
H     7.694000000     4.189000000    -3.343000000
H     6.351000000     4.617000000    -2.791000000
O     4.192000000     2.078000000    -7.832000000
H     4.319000000     1.643000000    -6.988000000
H     5.039000000     2.000000000    -8.271000000
O     6.852000000    -1.349000000     1.502000000
H     6.580000000    -2.171000000     1.093000000
H     7.554000000    -1.023000000     0.940000000
O     5.521000000     4.822000000    -6.116000000
H     5.571000000     5.520000000    -5.463000000
H     4.789000000     4.277000000    -5.828000000
O     9.661000000    -0.037000000    -5.664000000
H     8.832000000     0.363000000    -5.401000000
H     9.753000000    -0.797000000    -5.089000000
O     4.571000000     3.982000000    -2.854000000
H     4.961000000     3.866000000    -1.987000000
H     4.349000000     3.096000000    -3.138000000
O     8.670000000     1.658000000     0.688000000
H     8.621000000     2.609000000     0.595000000
H     7.923000000     1.329000000     0.189000000
O     5.271000000     1.077000000     1.673000000
H     4.340000000     0.895000000     1.542000000
H     5.670000000     0.215000000     1.784000000
O     4.552000000     0.621000000    -5.566000000
H     4.047000000    -0.175000000    -5.733000000
H     4.414000000     0.802000000    -4.636000000
O     5.956000000    -4.234000000    -5.807000000
H     5.672000000    -4.880000000    -6.455000000
H     5.415000000    -4.412000000    -5.038000000
O     5.700000000    -2.842000000    -2.480000000
H     6.191000000    -2.837000000    -3.302000000
H     5.330000000    -1.962000000    -2.417000000
O     5.906000000     3.333000000    -0.523000000
H     5.785000000     3.125000000     0.404000000
H     6.375000000     2.577000000    -0.878000000
O     8.975000000    -1.010000000    -0.565000000
H     9.345000000    -1.884000000    -0.683000000
H     9.719000000    -0.467000000    -0.305000000
O     6.489000000    -3.809000000    -0.062000000
H     6.177000000    -3.206000000    -0.736000000
H     6.433000000    -4.673000000    -0.470000000
O     4.513000000     6.556000000    -4.075000000
H     4.473000000     5.707000000    -3.635000000
H     4.882000000     7.148000000    -3.420000000
O     7.181000000     0.928000000    -1.764000000
H     7.911000000     0.319000000    -1.649000000
H     6.399000000     0.381000000    -1.692000000
O     5.963000000     6.023000000    -0.530000000
H     5.870000000     6.113000000     0.419000000
H     6.137000000     5.092000000    -0.666000000
O     7.215000000     1.236000000    -4.725000000
H     6.351000000     0.939000000    -5.009000000
H     7.091000000     1.498000000    -3.813000000
