218
-1459.62221
C     1.314000000    -4.623000000    -1.980000000
H     0.435000000    -4.469000000    -2.601000000
C     1.302000000    -4.321000000    -0.621000000
C     2.487000000    -4.251000000     0.100000000
H     2.483000000    -3.940000000     1.142000000
C     0.014000000    -4.038000000     0.114000000
O    -1.011000000    -4.678000000    -0.593000000
H    -0.226000000    -2.964000000     0.124000000
O     0.003000000    -4.458000000     1.517000000
C    -0.792000000    -3.768000000     2.466000000
C     0.038000000    -3.073000000     3.390000000
H     1.112000000    -3.207000000     3.289000000
C    -0.584000000    -2.189000000     4.318000000
O     0.278000000    -1.449000000     5.078000000
C    -1.957000000    -1.987000000     4.230000000
C    -2.670000000    -0.848000000     4.960000000
H    -3.717000000    -0.941000000     5.253000000
C    -2.484000000     0.426000000     4.206000000
C    -3.483000000     0.897000000     3.343000000
H    -4.364000000     0.263000000     3.277000000
H    -2.151000000    -0.810000000     5.920000000
C    -2.743000000    -2.640000000     3.304000000
H    -3.776000000    -2.320000000     3.198000000
C    -2.187000000    -3.583000000     2.417000000
C    -2.994000000    -4.309000000     1.407000000
H    -4.015000000    -4.469000000     1.761000000
H    -2.695000000    -5.355000000     1.315000000
C    -3.064000000    -3.613000000     0.048000000
C    -4.053000000    -2.734000000    -0.216000000
H    -4.820000000    -2.512000000     0.521000000
C    -2.127000000    -3.960000000    -0.875000000
C    -2.290000000    -3.466000000    -2.153000000
H    -1.542000000    -3.579000000    -2.934000000
C    -3.170000000    -2.419000000    -2.425000000
O    -3.014000000    -1.676000000    -3.623000000
C    -2.484000000    -0.442000000    -3.468000000
C    -1.450000000    -0.126000000    -4.491000000
C    -0.957000000     1.174000000    -4.740000000
H    -1.291000000     1.953000000    -4.059000000
C    -0.835000000    -1.164000000    -5.157000000
H    -1.124000000    -2.177000000    -4.890000000
O    -3.482000000     0.589000000    -3.441000000
H    -1.956000000    -0.369000000    -2.506000000
C    -4.119000000    -2.064000000    -1.391000000
C    -5.146000000    -0.906000000    -1.595000000
H    -6.072000000    -1.012000000    -1.024000000
H    -5.541000000    -0.925000000    -2.613000000
C    -4.578000000     0.431000000    -1.216000000
C    -4.712000000     0.873000000     0.066000000
H    -5.314000000     0.342000000     0.799000000
C    -3.748000000     1.098000000    -2.164000000
C    -3.175000000     2.267000000    -1.817000000
H    -2.426000000     2.760000000    -2.432000000
C    -3.510000000     2.852000000    -0.545000000
O    -2.875000000     4.064000000    -0.197000000
C    -1.740000000     3.894000000     0.698000000
C    -0.575000000     4.765000000     0.320000000
C    -0.513000000     5.225000000    -0.992000000
H    -1.213000000     4.840000000    -1.729000000
C     0.347000000     5.319000000     1.227000000
H     0.328000000     4.863000000     2.214000000
O    -2.096000000     4.111000000     2.042000000
H    -1.497000000     2.821000000     0.701000000
C    -4.178000000     2.077000000     0.462000000
C    -4.513000000     2.594000000     1.852000000
H    -5.505000000     2.352000000     2.239000000
H    -4.493000000     3.686000000     1.862000000
C    -3.392000000     2.128000000     2.698000000
C    -2.250000000     2.925000000     2.839000000
C    -1.169000000     2.438000000     3.596000000
H    -0.230000000     2.972000000     3.719000000
C    -1.330000000     1.226000000     4.364000000
O    -0.266000000     0.794000000     5.091000000
C     0.592000000    -0.196000000     4.510000000
H     0.268000000    -0.227000000     3.459000000
C     2.083000000     0.152000000     4.593000000
C     3.079000000    -0.900000000     4.487000000
H     2.837000000    -1.957000000     4.409000000
C     2.535000000     1.496000000     4.505000000
H     1.762000000     2.227000000     4.729000000
C     3.935000000     1.770000000     4.399000000
O     4.384000000     3.082000000     4.300000000
C     4.859000000     0.723000000     4.254000000
H     5.925000000     0.936000000     4.273000000
C     4.394000000    -0.631000000     4.338000000
O     5.325000000    -1.594000000     4.080000000
C     5.098000000    -2.833000000     3.550000000
C     5.102000000    -2.920000000     2.095000000
H     4.938000000    -2.037000000     1.484000000
C     5.289000000    -3.913000000     4.335000000
H     5.514000000    -3.776000000     5.389000000
C     5.187000000    -5.217000000     3.751000000
H     5.472000000    -6.059000000     4.377000000
C     4.980000000    -5.356000000     2.386000000
H     4.830000000    -6.332000000     1.932000000
C     4.966000000    -4.233000000     1.600000000
O     4.851000000    -4.446000000     0.207000000
C     3.684000000    -4.551000000    -0.515000000
C     3.719000000    -4.974000000    -1.831000000
H     4.666000000    -5.365000000    -2.197000000
C     2.516000000    -5.009000000    -2.564000000
O     2.484000000    -5.420000000    -3.886000000
C     1.730000000    -5.005000000    -4.926000000
C     1.535000000    -3.668000000    -5.180000000
H     1.968000000    -2.851000000    -4.609000000
C     1.186000000    -5.977000000    -5.805000000
H     1.254000000    -7.040000000    -5.586000000
C     0.456000000    -5.615000000    -6.899000000
H     0.044000000    -6.300000000    -7.636000000
C     0.437000000    -4.228000000    -7.210000000
H     0.035000000    -3.913000000    -8.169000000
C     0.889000000    -3.273000000    -6.317000000
O     0.799000000    -1.956000000    -6.750000000
C     0.146000000    -0.913000000    -6.124000000
C     0.399000000     0.372000000    -6.544000000
H     1.194000000     0.472000000    -7.279000000
C    -0.125000000     1.453000000    -5.811000000
O     0.340000000     2.751000000    -6.094000000
C    -0.277000000     3.931000000    -5.533000000
C     0.293000000     4.404000000    -4.321000000
H     1.205000000     3.984000000    -3.905000000
C    -1.294000000     4.691000000    -6.108000000
H    -1.709000000     4.268000000    -7.019000000
C    -1.774000000     5.780000000    -5.491000000
H    -2.552000000     6.309000000    -6.035000000
C    -1.137000000     6.320000000    -4.396000000
H    -1.531000000     7.215000000    -3.922000000
C    -0.122000000     5.615000000    -3.786000000
O     0.637000000     6.257000000    -2.775000000
C     0.504000000     6.036000000    -1.458000000
C     1.463000000     6.491000000    -0.557000000
H     2.244000000     7.101000000    -1.005000000
C     1.416000000     6.142000000     0.800000000
O     2.350000000     6.601000000     1.667000000
C     2.668000000     6.052000000     2.857000000
C     2.232000000     6.567000000     4.054000000
H     1.548000000     7.410000000     4.103000000
C     2.533000000     6.075000000     5.326000000
H     2.073000000     6.462000000     6.232000000
C     3.149000000     4.785000000     5.358000000
H     3.312000000     4.248000000     6.289000000
C     3.583000000     4.210000000     4.188000000
C     3.360000000     4.798000000     2.898000000
H     3.803000000     4.333000000     2.021000000
C     1.693000000    -0.402000000    -2.685000000
H     2.149000000    -1.051000000    -3.429000000
C     0.863000000    -0.747000000    -1.654000000
H     0.637000000    -1.798000000    -1.496000000
C     0.409000000     0.190000000    -0.657000000
C    -0.510000000    -0.245000000     0.473000000
H    -1.311000000    -0.885000000     0.096000000
H     0.050000000    -0.921000000     1.122000000
H    -1.062000000     0.591000000     0.908000000
C     0.748000000     1.535000000    -0.827000000
H     0.454000000     2.296000000    -0.109000000
C     1.588000000     1.895000000    -1.893000000
H     1.968000000     2.904000000    -2.028000000
C     2.019000000     0.952000000    -2.826000000
C     2.870000000     1.345000000    -4.022000000
O     3.140000000     2.507000000    -4.193000000
O     3.367000000     0.491000000    -4.710000000
O     5.937000000    -2.421000000    -6.916000000
H     5.076000000    -2.004000000    -6.957000000
H     5.756000000    -3.355000000    -7.021000000
O     4.755000000    -1.589000000    -3.524000000
H     5.690000000    -1.528000000    -3.721000000
H     4.367000000    -0.836000000    -3.969000000
O     6.571000000     1.907000000    -7.121000000
H     7.339000000     2.478000000    -7.119000000
H     6.466000000     1.650000000    -8.036000000
O     3.532000000     5.128000000    -4.999000000
H     3.494000000     4.172000000    -4.968000000
H     4.354000000     5.350000000    -4.561000000
O     1.294000000     5.404000000    -8.200000000
H     1.611000000     5.225000000    -7.314000000
H     1.384000000     4.570000000    -8.660000000
O     6.183000000     5.102000000    -4.659000000
H     6.919000000     5.149000000    -5.270000000
H     6.119000000     4.174000000    -4.433000000
O     6.413000000     0.718000000    -0.906000000
H     6.790000000     0.685000000    -1.785000000
H     5.524000000     0.379000000    -1.013000000
O     4.834000000     5.823000000    -7.615000000
H     4.161000000     5.450000000    -7.045000000
H     5.169000000     6.576000000    -7.129000000
O     6.739000000     1.396000000    -3.665000000
H     7.408000000     1.180000000    -4.315000000
H     5.909000000     1.270000000    -4.124000000
O     4.096000000    -0.887000000    -1.028000000
H     4.539000000    -1.204000000    -1.815000000
H     3.196000000    -1.201000000    -1.116000000
O     7.249000000    -2.215000000    -4.594000000
H     6.849000000    -2.251000000    -5.463000000
H     8.125000000    -2.580000000    -4.718000000
O     3.480000000     1.540000000     0.254000000
H     2.630000000     1.569000000    -0.185000000
H     3.828000000     0.673000000     0.043000000
O     3.634000000    -1.214000000    -6.853000000
H     2.793000000    -1.659000000    -6.747000000
H     3.716000000    -0.669000000    -6.070000000
O     4.199000000     6.041000000    -1.644000000
H     4.441000000     5.161000000    -1.933000000
H     3.436000000     6.267000000    -2.176000000
O     3.866000000    -1.157000000    -9.713000000
H     3.746000000    -0.963000000    -8.784000000
H     3.733000000    -2.102000000    -9.779000000
O     3.594000000     1.985000000    -6.942000000
H     3.137000000     1.852000000    -6.112000000
H     4.521000000     1.891000000    -6.723000000
O     3.410000000     2.570000000    -9.436000000
H     3.457000000     2.415000000    -8.493000000
H     4.245000000     2.983000000    -9.653000000
O     4.600000000     3.427000000    -2.151000000
H     4.455000000     2.887000000    -1.374000000
H     4.022000000     3.051000000    -2.815000000
O     7.688000000     3.742000000    -2.121000000
H     7.431000000     3.009000000    -2.679000000
H     6.885000000     3.986000000    -1.661000000
