218
-1438.76921
C     1.273000000    -4.064000000    -3.471000000
H     0.501000000    -4.401000000    -4.158000000
C     1.208000000    -4.038000000    -2.104000000
C     2.349000000    -3.787000000    -1.323000000
H     2.331000000    -3.631000000    -0.247000000
C    -0.188000000    -4.067000000    -1.453000000
O    -1.252000000    -4.248000000    -2.387000000
H    -0.321000000    -3.060000000    -1.031000000
O    -0.216000000    -5.027000000    -0.328000000
C    -0.805000000    -4.636000000     0.830000000
C     0.104000000    -4.393000000     1.845000000
H     1.123000000    -4.706000000     1.633000000
C    -0.261000000    -3.654000000     2.993000000
O     0.690000000    -3.083000000     3.828000000
C    -1.599000000    -3.265000000     3.092000000
C    -2.173000000    -2.663000000     4.352000000
H    -3.167000000    -2.999000000     4.652000000
C    -2.127000000    -1.122000000     4.310000000
C    -3.254000000    -0.447000000     3.789000000
H    -4.200000000    -0.898000000     3.501000000
H    -1.616000000    -2.953000000     5.246000000
C    -2.501000000    -3.694000000     2.074000000
H    -3.574000000    -3.521000000     2.118000000
C    -2.131000000    -4.300000000     0.889000000
C    -3.092000000    -4.672000000    -0.264000000
H    -4.041000000    -4.826000000     0.254000000
H    -2.781000000    -5.605000000    -0.739000000
C    -3.215000000    -3.567000000    -1.268000000
C    -4.261000000    -2.637000000    -1.114000000
H    -4.884000000    -2.651000000    -0.223000000
C    -2.365000000    -3.460000000    -2.376000000
C    -2.525000000    -2.374000000    -3.257000000
H    -1.765000000    -2.190000000    -4.012000000
C    -3.442000000    -1.407000000    -3.008000000
O    -3.364000000    -0.275000000    -3.771000000
C    -2.632000000     0.753000000    -3.112000000
C    -1.711000000     1.414000000    -4.106000000
C    -1.406000000     2.745000000    -4.018000000
H    -1.996000000     3.403000000    -3.385000000
C    -1.027000000     0.617000000    -5.085000000
H    -1.195000000    -0.457000000    -5.120000000
O    -3.658000000     1.592000000    -2.660000000
H    -2.116000000     0.428000000    -2.196000000
C    -4.381000000    -1.507000000    -1.975000000
C    -5.365000000    -0.449000000    -1.635000000
H    -6.143000000    -0.983000000    -1.085000000
H    -5.874000000     0.055000000    -2.458000000
C    -4.760000000     0.671000000    -0.764000000
C    -4.742000000     0.581000000     0.659000000
H    -5.310000000    -0.238000000     1.093000000
C    -3.986000000     1.630000000    -1.358000000
C    -3.334000000     2.640000000    -0.633000000
H    -2.822000000     3.407000000    -1.209000000
C    -3.367000000     2.597000000     0.797000000
O    -2.824000000     3.575000000     1.563000000
C    -1.577000000     3.281000000     2.210000000
C    -0.517000000     4.413000000     1.993000000
C    -0.558000000     5.261000000     0.932000000
H    -1.327000000     4.978000000     0.218000000
C     0.572000000     4.550000000     2.907000000
H     0.682000000     3.841000000     3.723000000
O    -1.816000000     2.924000000     3.570000000
H    -1.172000000     2.415000000     1.667000000
C    -4.167000000     1.588000000     1.469000000
C    -4.357000000     1.683000000     2.993000000
H    -5.295000000     1.171000000     3.220000000
H    -4.485000000     2.688000000     3.401000000
C    -3.218000000     0.952000000     3.589000000
C    -2.020000000     1.642000000     3.916000000
C    -1.000000000     0.961000000     4.572000000
H    -0.061000000     1.438000000     4.842000000
C    -1.040000000    -0.400000000     4.686000000
O     0.156000000    -1.089000000     5.028000000
C     0.929000000    -1.655000000     3.978000000
H     0.520000000    -1.171000000     3.079000000
C     2.413000000    -1.268000000     4.068000000
C     3.377000000    -2.212000000     3.655000000
H     3.030000000    -3.182000000     3.310000000
C     2.882000000    -0.053000000     4.628000000
H     2.212000000     0.639000000     5.131000000
C     4.216000000     0.253000000     4.585000000
O     4.625000000     1.525000000     4.908000000
C     5.132000000    -0.660000000     4.074000000
H     6.199000000    -0.460000000     4.140000000
C     4.724000000    -1.922000000     3.640000000
O     5.620000000    -2.852000000     3.241000000
C     5.548000000    -3.520000000     2.035000000
C     5.000000000    -2.895000000     0.899000000
H     4.711000000    -1.850000000     0.813000000
C     6.067000000    -4.794000000     2.063000000
H     6.485000000    -5.183000000     2.989000000
C     6.058000000    -5.555000000     0.905000000
H     6.431000000    -6.575000000     0.858000000
C     5.502000000    -5.026000000    -0.266000000
H     5.379000000    -5.622000000    -1.167000000
C     5.067000000    -3.689000000    -0.274000000
O     4.680000000    -3.212000000    -1.465000000
C     3.487000000    -3.506000000    -2.078000000
C     3.563000000    -3.511000000    -3.496000000
H     4.501000000    -3.316000000    -4.009000000
C     2.396000000    -3.739000000    -4.134000000
O     2.417000000    -3.694000000    -5.496000000
C     1.466000000    -3.096000000    -6.188000000
C     1.333000000    -1.702000000    -6.084000000
H     1.909000000    -1.091000000    -5.393000000
C     0.641000000    -3.799000000    -7.060000000
H     0.687000000    -4.884000000    -7.106000000
C    -0.213000000    -3.086000000    -7.947000000
H    -0.762000000    -3.605000000    -8.730000000
C    -0.230000000    -1.663000000    -7.855000000
H    -0.773000000    -1.038000000    -8.559000000
C     0.525000000    -0.979000000    -6.930000000
O     0.502000000     0.411000000    -6.941000000
C    -0.132000000     1.164000000    -5.977000000
C     0.154000000     2.472000000    -5.829000000
H     0.962000000     2.846000000    -6.452000000
C    -0.464000000     3.297000000    -4.871000000
O    -0.187000000     4.639000000    -4.743000000
C    -0.622000000     5.528000000    -3.781000000
C     0.145000000     5.765000000    -2.632000000
H     1.179000000     5.448000000    -2.738000000
C    -1.846000000     6.221000000    -3.909000000
H    -2.397000000     6.081000000    -4.835000000
C    -2.374000000     6.925000000    -2.852000000
H    -3.374000000     7.338000000    -2.952000000
C    -1.579000000     7.196000000    -1.686000000
H    -1.900000000     7.841000000    -0.872000000
C    -0.338000000     6.640000000    -1.652000000
O     0.487000000     6.810000000    -0.596000000
C     0.486000000     6.094000000     0.574000000
C     1.594000000     6.141000000     1.400000000
H     2.360000000     6.854000000     1.109000000
C     1.659000000     5.399000000     2.592000000
O     2.739000000     5.583000000     3.457000000
C     2.963000000     4.807000000     4.585000000
C     2.504000000     5.043000000     5.896000000
H     1.974000000     5.948000000     6.180000000
C     2.673000000     4.070000000     6.904000000
H     2.211000000     4.269000000     7.867000000
C     3.321000000     2.812000000     6.585000000
H     3.495000000     2.083000000     7.372000000
C     3.792000000     2.597000000     5.276000000
C     3.538000000     3.554000000     4.269000000
H     4.070000000     3.334000000     3.347000000
C     2.238000000    -0.210000000    -1.740000000
H     3.048000000    -0.914000000    -1.913000000
C     1.285000000    -0.538000000    -0.752000000
H     1.304000000    -1.528000000    -0.303000000
C     0.408000000     0.520000000    -0.377000000
C    -0.643000000     0.077000000     0.598000000
H    -0.815000000    -0.998000000     0.509000000
H    -0.359000000     0.175000000     1.648000000
H    -1.548000000     0.665000000     0.435000000
C     0.430000000     1.772000000    -0.941000000
H    -0.308000000     2.502000000    -0.620000000
C     1.395000000     2.039000000    -1.863000000
H     1.408000000     3.046000000    -2.272000000
C     2.308000000     1.088000000    -2.271000000
C     3.397000000     1.438000000    -3.227000000
O     3.814000000     2.543000000    -3.355000000
O     3.925000000     0.627000000    -3.886000000
O     5.042000000    -2.291000000    -8.528000000
H     4.973000000    -1.733000000    -7.753000000
H     5.203000000    -1.681000000    -9.248000000
O     6.255000000    -0.109000000    -3.284000000
H     6.721000000    -0.219000000    -4.113000000
H     5.408000000     0.262000000    -3.532000000
O     6.653000000     2.942000000    -7.141000000
H     5.748000000     3.142000000    -7.378000000
H     7.150000000     3.710000000    -7.422000000
O     4.064000000     4.855000000    -4.395000000
H     4.042000000     3.995000000    -3.974000000
H     4.665000000     5.370000000    -3.856000000
O     3.351000000     7.592000000    -4.719000000
H     3.379000000     7.623000000    -5.675000000
H     3.119000000     6.686000000    -4.516000000
O     6.418000000     3.079000000    -3.209000000
H     6.945000000     2.793000000    -3.955000000
H     5.533000000     2.775000000    -3.409000000
O     4.867000000     6.835000000     0.450000000
H     4.867000000     5.954000000     0.077000000
H     4.584000000     6.712000000     1.356000000
O     7.027000000     0.010000000    -0.615000000
H     6.831000000    -0.112000000    -1.544000000
H     7.659000000    -0.679000000    -0.411000000
O     6.726000000     0.258000000    -6.214000000
H     6.556000000     1.176000000    -6.428000000
H     5.915000000    -0.196000000    -6.446000000
O     4.954000000     1.219000000     0.380000000
H     4.173000000     0.745000000     0.092000000
H     5.685000000     0.685000000     0.069000000
O     4.506000000    -1.336000000    -5.660000000
H     4.410000000    -0.705000000    -4.947000000
H     4.065000000    -2.125000000    -5.343000000
O     6.563000000     3.155000000     1.316000000
H     5.983000000     2.419000000     1.120000000
H     6.279000000     3.848000000     0.719000000
O     7.597000000    -3.010000000    -2.831000000
H     6.947000000    -2.314000000    -2.738000000
H     7.134000000    -3.711000000    -3.289000000
O     4.067000000     2.426000000    -6.088000000
H     4.083000000     1.875000000    -5.306000000
H     3.719000000     3.264000000    -5.784000000
O     3.313000000     0.549000000    -8.350000000
H     2.744000000     0.762000000    -7.611000000
H     3.990000000     1.225000000    -8.335000000
O     5.220000000     4.244000000    -0.935000000
H     5.738000000     4.051000000    -1.717000000
H     4.568000000     3.544000000    -0.901000000
O     6.285000000     6.508000000    -6.255000000
H     6.188000000     6.061000000    -7.096000000
H     5.933000000     5.890000000    -5.614000000
O     5.733000000     6.354000000    -2.702000000
H     5.876000000     5.813000000    -1.926000000
H     5.551000000     7.228000000    -2.355000000
O     9.242000000     3.237000000    -3.041000000
H     9.581000000     2.365000000    -2.839000000
H     8.313000000     3.192000000    -2.815000000
