218
-1472.86649
C     1.693000000    -3.712000000    -2.433000000
H     0.848000000    -3.382000000    -3.032000000
C     1.482000000    -4.191000000    -1.150000000
C     2.556000000    -4.696000000    -0.380000000
H     2.436000000    -5.114000000     0.616000000
C     0.082000000    -4.222000000    -0.603000000
O    -1.115000000    -4.672000000    -1.390000000
H    -0.188000000    -3.181000000    -0.370000000
O    -0.029000000    -5.037000000     0.643000000
C    -0.519000000    -4.328000000     1.744000000
C     0.400000000    -3.607000000     2.553000000
H     1.461000000    -3.780000000     2.396000000
C    -0.053000000    -2.740000000     3.474000000
O     0.935000000    -2.024000000     4.067000000
C    -1.411000000    -2.541000000     3.624000000
C    -1.946000000    -1.612000000     4.735000000
H    -2.910000000    -2.022000000     5.042000000
C    -2.095000000    -0.155000000     4.385000000
C    -3.259000000     0.271000000     3.807000000
H    -4.083000000    -0.430000000     3.699000000
H    -1.290000000    -1.564000000     5.606000000
C    -2.275000000    -3.242000000     2.820000000
H    -3.293000000    -2.881000000     2.940000000
C    -1.875000000    -4.172000000     1.937000000
C    -2.858000000    -4.899000000     1.032000000
H    -3.717000000    -4.993000000     1.700000000
H    -2.430000000    -5.864000000     0.752000000
C    -3.102000000    -3.989000000    -0.221000000
C    -4.221000000    -3.122000000    -0.261000000
H    -4.919000000    -3.108000000     0.572000000
C    -2.241000000    -3.940000000    -1.284000000
C    -2.462000000    -3.103000000    -2.397000000
H    -1.760000000    -3.108000000    -3.227000000
C    -3.556000000    -2.268000000    -2.367000000
O    -3.571000000    -1.299000000    -3.374000000
C    -2.882000000    -0.073000000    -3.107000000
C    -1.928000000     0.246000000    -4.205000000
C    -1.419000000     1.574000000    -4.214000000
H    -1.945000000     2.366000000    -3.687000000
C    -1.496000000    -0.689000000    -5.164000000
H    -1.958000000    -1.665000000    -5.294000000
O    -3.837000000     0.944000000    -2.837000000
H    -2.189000000    -0.130000000    -2.255000000
C    -4.363000000    -2.199000000    -1.293000000
C    -5.397000000    -1.142000000    -1.138000000
H    -6.138000000    -1.500000000    -0.420000000
H    -5.922000000    -0.934000000    -2.073000000
C    -4.782000000     0.182000000    -0.692000000
C    -4.853000000     0.435000000     0.695000000
H    -5.338000000    -0.287000000     1.347000000
C    -4.216000000     1.147000000    -1.558000000
C    -3.751000000     2.351000000    -1.007000000
H    -3.250000000     2.951000000    -1.763000000
C    -3.784000000     2.624000000     0.318000000
O    -3.315000000     3.796000000     0.831000000
C    -2.058000000     3.742000000     1.475000000
C    -1.107000000     4.761000000     0.933000000
C    -1.050000000     5.163000000    -0.399000000
H    -1.733000000     4.705000000    -1.110000000
C    -0.111000000     5.238000000     1.814000000
H    -0.068000000     4.852000000     2.829000000
O    -2.146000000     3.727000000     2.967000000
H    -1.621000000     2.780000000     1.169000000
C    -4.419000000     1.704000000     1.144000000
C    -4.590000000     1.974000000     2.622000000
H    -5.418000000     1.373000000     3.003000000
H    -4.822000000     2.985000000     2.964000000
C    -3.375000000     1.587000000     3.383000000
C    -2.350000000     2.509000000     3.671000000
C    -1.146000000     2.083000000     4.274000000
H    -0.278000000     2.737000000     4.273000000
C    -0.966000000     0.742000000     4.629000000
O     0.369000000     0.285000000     4.771000000
C     0.973000000    -0.556000000     3.762000000
H     0.494000000    -0.389000000     2.786000000
C     2.415000000    -0.086000000     3.553000000
C     3.459000000    -1.038000000     3.421000000
H     3.230000000    -2.100000000     3.402000000
C     2.755000000     1.236000000     3.676000000
H     1.940000000     1.920000000     3.896000000
C     4.068000000     1.685000000     3.450000000
O     4.392000000     2.989000000     3.368000000
C     5.063000000     0.721000000     3.285000000
H     6.091000000     0.987000000     3.055000000
C     4.728000000    -0.625000000     3.263000000
O     5.743000000    -1.544000000     3.210000000
C     5.676000000    -2.900000000     2.860000000
C     5.239000000    -3.252000000     1.624000000
H     4.858000000    -2.462000000     0.983000000
C     6.292000000    -3.822000000     3.743000000
H     6.625000000    -3.512000000     4.730000000
C     6.256000000    -5.171000000     3.388000000
H     6.616000000    -5.833000000     4.171000000
C     5.843000000    -5.563000000     2.066000000
H     5.876000000    -6.593000000     1.722000000
C     5.239000000    -4.586000000     1.243000000
O     4.863000000    -4.971000000    -0.076000000
C     3.826000000    -4.584000000    -0.842000000
C     4.076000000    -4.228000000    -2.157000000
H     5.117000000    -4.176000000    -2.467000000
C     2.978000000    -3.798000000    -2.950000000
O     3.229000000    -3.259000000    -4.240000000
C     2.366000000    -3.382000000    -5.293000000
C     1.625000000    -2.230000000    -5.661000000
H     1.830000000    -1.298000000    -5.139000000
C     2.048000000    -4.672000000    -5.789000000
H     2.549000000    -5.523000000    -5.336000000
C     0.900000000    -4.777000000    -6.623000000
H     0.438000000    -5.723000000    -6.893000000
C     0.225000000    -3.624000000    -7.058000000
H    -0.575000000    -3.732000000    -7.785000000
C     0.610000000    -2.354000000    -6.616000000
O    -0.093000000    -1.205000000    -6.996000000
C    -0.506000000    -0.309000000    -6.064000000
C    -0.058000000     1.008000000    -6.092000000
H     0.634000000     1.369000000    -6.849000000
C    -0.529000000     1.918000000    -5.201000000
O    -0.147000000     3.172000000    -5.375000000
C    -0.756000000     4.286000000    -4.902000000
C    -0.068000000     4.830000000    -3.787000000
H     0.842000000     4.352000000    -3.433000000
C    -1.793000000     4.951000000    -5.541000000
H    -2.240000000     4.637000000    -6.481000000
C    -2.252000000     6.163000000    -5.001000000
H    -3.028000000     6.708000000    -5.532000000
C    -1.639000000     6.595000000    -3.842000000
H    -2.032000000     7.538000000    -3.472000000
C    -0.613000000     5.930000000    -3.242000000
O    -0.098000000     6.550000000    -2.104000000
C    -0.071000000     6.048000000    -0.858000000
C     0.828000000     6.628000000     0.064000000
H     1.654000000     7.244000000    -0.284000000
C     0.776000000     6.246000000     1.424000000
O     1.792000000     6.803000000     2.170000000
C     2.369000000     5.960000000     3.098000000
C     1.970000000     6.094000000     4.445000000
H     1.296000000     6.888000000     4.759000000
C     2.579000000     5.267000000     5.401000000
H     2.382000000     5.371000000     6.465000000
C     3.404000000     4.245000000     5.032000000
H     3.879000000     3.625000000     5.788000000
C     3.628000000     4.002000000     3.742000000
C     3.271000000     4.961000000     2.744000000
H     3.541000000     4.793000000     1.705000000
C     0.891000000     0.243000000    -2.293000000
H     1.017000000    -0.192000000    -3.281000000
C     0.058000000    -0.351000000    -1.393000000
H    -0.336000000    -1.334000000    -1.640000000
C    -0.286000000     0.317000000    -0.186000000
C    -1.351000000    -0.197000000     0.799000000
H    -1.147000000    -1.214000000     1.141000000
H    -1.495000000     0.301000000     1.760000000
H    -2.341000000    -0.220000000     0.341000000
C     0.390000000     1.490000000     0.135000000
H     0.251000000     1.985000000     1.093000000
C     1.328000000     2.054000000    -0.728000000
H     1.752000000     3.021000000    -0.469000000
C     1.560000000     1.468000000    -1.943000000
C     2.530000000     2.141000000    -2.807000000
O     3.085000000     3.203000000    -2.473000000
O     2.751000000     1.737000000    -3.919000000
O     5.900000000     1.964000000    -7.499000000
H     6.585000000     1.371000000    -7.189000000
H     5.081000000     1.515000000    -7.289000000
O     3.878000000    -0.816000000    -3.015000000
H     3.602000000    -1.431000000    -3.694000000
H     3.626000000     0.043000000    -3.352000000
O     7.896000000     4.740000000    -3.334000000
H     7.103000000     4.224000000    -3.478000000
H     8.146000000     4.547000000    -2.431000000
O     7.681000000     1.566000000    -1.545000000
H     7.946000000     2.484000000    -1.499000000
H     7.396000000     1.354000000    -0.656000000
O     2.923000000     5.880000000    -2.697000000
H     2.922000000     4.925000000    -2.753000000
H     2.067000000     6.099000000    -2.329000000
O     2.784000000     1.834000000    -8.643000000
H     2.161000000     1.503000000    -9.291000000
H     2.419000000     2.676000000    -8.369000000
O     5.965000000    -1.846000000    -6.158000000
H     5.297000000    -1.474000000    -6.734000000
H     5.898000000    -1.334000000    -5.352000000
O     2.990000000     4.328000000    -5.265000000
H     2.966000000     3.525000000    -4.744000000
H     2.826000000     5.028000000    -4.633000000
O     6.690000000    -0.356000000    -3.372000000
H     5.865000000    -0.602000000    -2.953000000
H     7.073000000     0.293000000    -2.782000000
O     4.856000000     7.683000000    -2.856000000
H     5.339000000     7.480000000    -3.657000000
H     4.264000000     6.940000000    -2.738000000
O     3.172000000    -0.910000000    -0.285000000
H     2.403000000    -0.356000000    -0.152000000
H     3.202000000    -1.056000000    -1.230000000
O     5.694000000     0.599000000     0.246000000
H     4.802000000     0.252000000     0.269000000
H     5.583000000     1.531000000     0.060000000
O     3.577000000     0.361000000    -5.934000000
H     3.159000000     0.289000000    -6.792000000
H     3.052000000     1.010000000    -5.465000000
O     6.443000000     5.571000000     0.876000000
H     6.213000000     4.709000000     1.222000000
H     7.199000000     5.845000000     1.396000000
O     5.174000000     4.490000000    -6.966000000
H     5.162000000     3.591000000    -7.294000000
H     4.357000000     4.577000000    -6.475000000
O     6.437000000     6.442000000    -4.887000000
H     7.163000000     6.213000000    -4.307000000
H     6.254000000     5.636000000    -5.371000000
O     5.678000000     2.906000000    -3.592000000
H     4.784000000     2.854000000    -3.253000000
H     5.840000000     2.042000000    -3.972000000
O     1.746000000     4.289000000    -7.739000000
H     2.041000000     4.143000000    -6.839000000
H     1.408000000     5.184000000    -7.737000000
O     4.925000000     3.157000000    -0.428000000
H     5.354000000     4.002000000    -0.295000000
H     4.396000000     3.279000000    -1.216000000
