218
-1470.42689
C     1.414000000    -4.249000000    -2.207000000
H     0.642000000    -3.813000000    -2.835000000
C     1.086000000    -4.609000000    -0.866000000
C     2.096000000    -5.080000000    -0.073000000
H     1.912000000    -5.385000000     0.954000000
C    -0.253000000    -4.302000000    -0.249000000
O    -1.431000000    -4.618000000    -1.164000000
H    -0.273000000    -3.221000000    -0.048000000
O    -0.538000000    -5.014000000     1.021000000
C    -1.045000000    -4.200000000     2.050000000
C    -0.142000000    -3.589000000     2.896000000
H     0.884000000    -3.949000000     2.880000000
C    -0.518000000    -2.543000000     3.751000000
O     0.528000000    -1.941000000     4.351000000
C    -1.891000000    -2.153000000     3.802000000
C    -2.490000000    -1.172000000     4.788000000
H    -3.543000000    -1.394000000     4.973000000
C    -2.331000000     0.243000000     4.235000000
C    -3.425000000     0.973000000     3.678000000
H    -4.401000000     0.496000000     3.636000000
H    -1.901000000    -1.235000000     5.705000000
C    -2.777000000    -2.790000000     2.876000000
H    -3.817000000    -2.485000000     2.964000000
C    -2.336000000    -3.708000000     1.955000000
C    -3.323000000    -4.380000000     1.095000000
H    -4.385000000    -4.456000000     1.336000000
H    -2.984000000    -5.381000000     0.818000000
C    -3.454000000    -3.571000000    -0.257000000
C    -4.416000000    -2.575000000    -0.403000000
H    -5.124000000    -2.425000000     0.409000000
C    -2.525000000    -3.754000000    -1.299000000
C    -2.659000000    -2.958000000    -2.388000000
H    -1.834000000    -3.111000000    -3.078000000
C    -3.640000000    -1.986000000    -2.535000000
O    -3.692000000    -1.245000000    -3.638000000
C    -2.926000000    -0.011000000    -3.520000000
C    -2.024000000     0.286000000    -4.698000000
C    -1.480000000     1.560000000    -4.801000000
H    -1.794000000     2.397000000    -4.183000000
C    -1.427000000    -0.722000000    -5.429000000
H    -1.568000000    -1.751000000    -5.108000000
O    -3.916000000     1.062000000    -3.293000000
H    -2.284000000    -0.070000000    -2.629000000
C    -4.601000000    -1.816000000    -1.521000000
C    -5.543000000    -0.580000000    -1.448000000
H    -6.312000000    -0.751000000    -0.692000000
H    -6.098000000    -0.413000000    -2.374000000
C    -4.831000000     0.712000000    -1.086000000
C    -4.913000000     1.204000000     0.226000000
H    -5.481000000     0.655000000     0.973000000
C    -4.088000000     1.522000000    -2.017000000
C    -3.386000000     2.606000000    -1.553000000
H    -2.778000000     3.154000000    -2.268000000
C    -3.445000000     3.036000000    -0.187000000
O    -2.653000000     4.129000000     0.228000000
C    -1.414000000     3.793000000     0.998000000
C    -0.222000000     4.619000000     0.588000000
C    -0.151000000     5.122000000    -0.681000000
H    -0.988000000     5.024000000    -1.369000000
C     0.817000000     4.816000000     1.482000000
H     0.815000000     4.418000000     2.494000000
O    -1.646000000     3.945000000     2.396000000
H    -1.121000000     2.736000000     0.919000000
C    -4.156000000     2.313000000     0.668000000
C    -4.372000000     2.723000000     2.115000000
H    -5.348000000     2.535000000     2.569000000
H    -4.428000000     3.813000000     2.121000000
C    -3.228000000     2.192000000     3.026000000
C    -1.983000000     2.820000000     3.087000000
C    -0.936000000     2.152000000     3.782000000
H     0.077000000     2.545000000     3.811000000
C    -1.101000000     0.889000000     4.337000000
O     0.004000000     0.255000000     4.893000000
C     0.737000000    -0.561000000     3.988000000
H     0.436000000    -0.311000000     2.960000000
C     2.237000000    -0.213000000     4.024000000
C     3.069000000    -1.108000000     3.342000000
H     2.656000000    -1.965000000     2.815000000
C     2.669000000     1.044000000     4.444000000
H     1.943000000     1.775000000     4.791000000
C     4.004000000     1.282000000     4.343000000
O     4.633000000     2.509000000     4.722000000
C     4.884000000     0.304000000     3.907000000
H     5.956000000     0.477000000     3.849000000
C     4.470000000    -0.885000000     3.384000000
O     5.369000000    -1.799000000     2.817000000
C     5.185000000    -3.110000000     2.785000000
C     5.010000000    -3.733000000     1.546000000
H     4.947000000    -3.164000000     0.622000000
C     5.003000000    -3.815000000     3.941000000
H     4.986000000    -3.292000000     4.894000000
C     4.630000000    -5.176000000     3.930000000
H     4.535000000    -5.723000000     4.864000000
C     4.530000000    -5.772000000     2.699000000
H     4.100000000    -6.769000000     2.739000000
C     4.720000000    -5.091000000     1.459000000
O     4.390000000    -5.648000000     0.257000000
C     3.445000000    -5.173000000    -0.520000000
C     3.783000000    -4.804000000    -1.820000000
H     4.791000000    -4.901000000    -2.214000000
C     2.771000000    -4.260000000    -2.693000000
O     3.002000000    -3.818000000    -3.960000000
C     2.060000000    -3.805000000    -4.964000000
C     1.616000000    -2.626000000    -5.548000000
H     2.057000000    -1.710000000    -5.160000000
C     1.593000000    -5.011000000    -5.402000000
H     2.119000000    -5.836000000    -4.928000000
C     0.518000000    -5.050000000    -6.259000000
H     0.022000000    -5.978000000    -6.534000000
C     0.072000000    -3.879000000    -6.896000000
H    -0.716000000    -3.941000000    -7.643000000
C     0.552000000    -2.639000000    -6.496000000
O     0.192000000    -1.463000000    -7.131000000
C    -0.434000000    -0.455000000    -6.348000000
C     0.051000000     0.805000000    -6.561000000
H     0.998000000     0.824000000    -7.094000000
C    -0.430000000     1.811000000    -5.696000000
O     0.277000000     2.970000000    -5.724000000
C    -0.056000000     4.138000000    -5.066000000
C     0.763000000     4.619000000    -4.045000000
H     1.620000000     4.075000000    -3.654000000
C    -1.194000000     4.865000000    -5.439000000
H    -1.761000000     4.401000000    -6.243000000
C    -1.498000000     6.063000000    -4.933000000
H    -2.385000000     6.639000000    -5.182000000
C    -0.733000000     6.546000000    -3.835000000
H    -1.093000000     7.475000000    -3.400000000
C     0.411000000     5.827000000    -3.408000000
O     1.173000000     6.240000000    -2.356000000
C     1.050000000     5.753000000    -1.104000000
C     2.099000000     5.951000000    -0.222000000
H     3.013000000     6.456000000    -0.524000000
C     1.915000000     5.554000000     1.085000000
O     2.877000000     5.950000000     1.897000000
C     3.125000000     5.492000000     3.135000000
C     2.846000000     6.297000000     4.226000000
H     2.374000000     7.242000000     3.972000000
C     3.169000000     5.852000000     5.482000000
H     2.894000000     6.422000000     6.365000000
C     3.831000000     4.594000000     5.683000000
H     3.919000000     4.223000000     6.701000000
C     4.115000000     3.817000000     4.570000000
C     3.728000000     4.265000000     3.306000000
H     3.862000000     3.630000000     2.434000000
C     1.585000000     0.648000000    -2.434000000
H     1.978000000     0.235000000    -3.359000000
C     0.536000000     0.067000000    -1.695000000
H    -0.042000000    -0.739000000    -2.140000000
C     0.204000000     0.497000000    -0.438000000
C    -1.067000000    -0.022000000     0.232000000
H    -1.383000000    -1.043000000     0.004000000
H    -0.930000000    -0.194000000     1.301000000
H    -1.947000000     0.603000000     0.067000000
C     0.916000000     1.585000000     0.139000000
H     0.847000000     1.851000000     1.191000000
C     2.013000000     2.093000000    -0.529000000
H     2.587000000     2.842000000     0.010000000
C     2.376000000     1.579000000    -1.790000000
C     3.531000000     2.263000000    -2.535000000
O     4.148000000     3.165000000    -2.084000000
O     3.886000000     1.807000000    -3.577000000
O     4.369000000    -0.984000000    -2.940000000
H     4.250000000    -1.368000000    -3.809000000
H     4.366000000    -0.039000000    -3.094000000
O     6.627000000     4.342000000    -1.430000000
H     5.823000000     4.050000000    -1.858000000
H     7.297000000     3.730000000    -1.735000000
O     2.328000000     4.708000000    -7.219000000
H     1.894000000     5.349000000    -6.656000000
H     3.166000000     5.113000000    -7.442000000
O     8.352000000     2.236000000    -1.910000000
H     7.578000000     1.736000000    -2.169000000
H     9.007000000     2.025000000    -2.575000000
O     4.006000000     5.420000000    -3.056000000
H     4.189000000     4.533000000    -2.746000000
H     3.093000000     5.574000000    -2.814000000
O     4.927000000     3.739000000    -5.419000000
H     4.971000000     3.166000000    -4.653000000
H     4.681000000     4.593000000    -5.065000000
O     4.042000000     8.228000000    -2.992000000
H     4.236000000     8.735000000    -3.780000000
H     3.869000000     7.343000000    -3.313000000
O     7.140000000    -0.903000000    -1.615000000
H     6.805000000    -0.618000000    -0.765000000
H     6.664000000    -0.369000000    -2.251000000
O     5.218000000     7.449000000    -0.635000000
H     4.794000000     7.799000000    -1.419000000
H     5.480000000     6.562000000    -0.881000000
O     3.925000000    -0.445000000    -0.138000000
H     4.212000000    -0.453000000    -1.051000000
H     3.072000000    -0.011000000    -0.159000000
O     6.432000000     0.290000000     0.796000000
H     5.689000000    -0.288000000     0.970000000
H     6.131000000     1.156000000     1.070000000
O     3.502000000     0.311000000    -5.912000000
H     3.707000000     0.852000000    -5.149000000
H     3.559000000     0.913000000    -6.654000000
O     8.969000000     5.623000000    -0.477000000
H     9.196000000     6.129000000    -1.258000000
H     8.082000000     5.306000000    -0.646000000
O     7.620000000     4.120000000    -6.044000000
H     8.156000000     3.328000000    -6.065000000
H     6.725000000     3.808000000    -6.176000000
O     6.579000000     6.996000000    -4.441000000
H     6.655000000     6.196000000    -3.921000000
H     7.184000000     6.865000000    -5.171000000
O     6.425000000     1.057000000    -3.306000000
H     5.536000000     1.411000000    -3.298000000
H     6.615000000     0.908000000    -4.232000000
O     3.720000000     2.424000000    -7.468000000
H     2.965000000     3.007000000    -7.548000000
H     4.314000000     2.882000000    -6.873000000
O     5.544000000     2.899000000     0.724000000
H     6.159000000     3.578000000     0.446000000
H     4.839000000     2.935000000     0.078000000
O     4.923000000     5.582000000    -7.428000000
H     5.505000000     5.185000000    -6.780000000
H     5.208000000     5.214000000    -8.264000000
