218
-1453.28838
C     0.609000000    -3.508000000    -3.825000000
H    -0.448000000    -3.448000000    -4.071000000
C     1.130000000    -3.826000000    -2.512000000
C     2.500000000    -4.044000000    -2.358000000
H     2.924000000    -4.284000000    -1.387000000
C     0.173000000    -3.808000000    -1.345000000
O    -1.146000000    -4.302000000    -1.626000000
H     0.042000000    -2.809000000    -0.904000000
O     0.781000000    -4.524000000    -0.229000000
C     0.501000000    -4.242000000     1.121000000
C     1.594000000    -3.713000000     1.836000000
H     2.559000000    -3.665000000     1.338000000
C     1.432000000    -3.269000000     3.138000000
O     2.484000000    -2.601000000     3.649000000
C     0.130000000    -3.253000000     3.667000000
C    -0.221000000    -2.580000000     5.002000000
H    -1.135000000    -2.975000000     5.451000000
C    -0.412000000    -1.072000000     4.945000000
C    -1.709000000    -0.560000000     4.842000000
H    -2.534000000    -1.247000000     4.676000000
H     0.552000000    -2.900000000     5.704000000
C    -0.922000000    -3.881000000     2.977000000
H    -1.921000000    -3.869000000     3.404000000
C    -0.753000000    -4.336000000     1.669000000
C    -1.955000000    -4.982000000     1.056000000
H    -2.634000000    -5.360000000     1.823000000
H    -1.592000000    -5.825000000     0.465000000
C    -2.720000000    -3.923000000     0.215000000
C    -3.729000000    -3.147000000     0.769000000
H    -3.935000000    -3.319000000     1.822000000
C    -2.260000000    -3.655000000    -1.047000000
C    -2.969000000    -2.796000000    -1.888000000
H    -2.699000000    -2.707000000    -2.937000000
C    -4.018000000    -2.013000000    -1.348000000
O    -4.582000000    -1.023000000    -2.158000000
C    -3.909000000     0.202000000    -1.938000000
C    -3.528000000     0.869000000    -3.236000000
C    -3.615000000     2.272000000    -3.363000000
H    -3.830000000     2.815000000    -2.446000000
C    -3.134000000     0.130000000    -4.346000000
H    -3.027000000    -0.932000000    -4.140000000
O    -4.701000000     1.039000000    -1.091000000
H    -2.918000000     0.046000000    -1.488000000
C    -4.423000000    -2.252000000     0.027000000
C    -5.415000000    -1.332000000     0.656000000
H    -5.798000000    -1.816000000     1.556000000
H    -6.265000000    -1.043000000     0.035000000
C    -4.850000000     0.007000000     1.112000000
C    -4.553000000     0.144000000     2.474000000
H    -4.832000000    -0.647000000     3.165000000
C    -4.375000000     1.009000000     0.201000000
C    -3.757000000     2.183000000     0.735000000
H    -3.352000000     2.890000000     0.016000000
C    -3.383000000     2.241000000     2.025000000
O    -2.652000000     3.332000000     2.467000000
C    -1.225000000     3.123000000     2.513000000
C    -0.428000000     4.287000000     1.840000000
C    -0.728000000     4.692000000     0.545000000
H    -1.565000000     4.217000000     0.039000000
C     0.748000000     4.793000000     2.416000000
H     1.004000000     4.544000000     3.443000000
O    -0.818000000     2.882000000     3.916000000
H    -0.908000000     2.240000000     1.938000000
C    -3.853000000     1.284000000     2.948000000
C    -3.350000000     1.365000000     4.360000000
H    -4.065000000     1.021000000     5.111000000
H    -3.338000000     2.435000000     4.579000000
C    -1.911000000     0.787000000     4.656000000
C    -0.768000000     1.640000000     4.471000000
C     0.476000000     1.056000000     4.518000000
H     1.356000000     1.640000000     4.263000000
C     0.695000000    -0.243000000     4.798000000
O     2.016000000    -0.608000000     4.709000000
C     2.462000000    -1.206000000     3.493000000
H     1.782000000    -0.946000000     2.669000000
C     3.812000000    -0.556000000     2.988000000
C     4.601000000    -1.225000000     1.989000000
H     4.313000000    -2.228000000     1.684000000
C     4.319000000     0.691000000     3.433000000
H     3.846000000     1.223000000     4.254000000
C     5.493000000     1.212000000     2.870000000
O     5.998000000     2.431000000     3.265000000
C     6.142000000     0.587000000     1.839000000
H     7.034000000     1.062000000     1.438000000
C     5.747000000    -0.664000000     1.403000000
O     6.360000000    -1.202000000     0.291000000
C     6.175000000    -2.503000000    -0.211000000
C     5.654000000    -2.671000000    -1.518000000
H     5.250000000    -1.778000000    -1.988000000
C     6.528000000    -3.580000000     0.482000000
H     6.921000000    -3.549000000     1.495000000
C     6.449000000    -4.917000000    -0.092000000
H     6.748000000    -5.817000000     0.439000000
C     5.851000000    -5.054000000    -1.355000000
H     5.963000000    -6.085000000    -1.679000000
C     5.426000000    -3.946000000    -2.061000000
O     4.746000000    -4.080000000    -3.307000000
C     3.332000000    -3.926000000    -3.456000000
C     2.833000000    -3.510000000    -4.708000000
H     3.605000000    -3.443000000    -5.471000000
C     1.491000000    -3.360000000    -4.953000000
O     1.066000000    -3.042000000    -6.238000000
C    -0.251000000    -2.790000000    -6.628000000
C    -0.795000000    -1.491000000    -6.334000000
H    -0.157000000    -0.750000000    -5.859000000
C    -1.132000000    -3.788000000    -7.108000000
H    -0.813000000    -4.823000000    -7.199000000
C    -2.474000000    -3.536000000    -7.426000000
H    -3.182000000    -4.274000000    -7.794000000
C    -2.915000000    -2.215000000    -7.341000000
H    -3.901000000    -1.904000000    -7.676000000
C    -2.120000000    -1.233000000    -6.704000000
O    -2.568000000     0.035000000    -6.679000000
C    -2.814000000     0.757000000    -5.557000000
C    -2.807000000     2.181000000    -5.594000000
H    -2.500000000     2.697000000    -6.500000000
C    -3.264000000     2.909000000    -4.542000000
O    -3.469000000     4.328000000    -4.591000000
C    -3.047000000     5.114000000    -3.525000000
C    -1.742000000     5.058000000    -3.010000000
H    -1.067000000     4.349000000    -3.481000000
C    -3.978000000     6.015000000    -3.051000000
H    -4.943000000     6.177000000    -3.523000000
C    -3.599000000     6.763000000    -1.931000000
H    -4.227000000     7.494000000    -1.428000000
C    -2.288000000     6.763000000    -1.455000000
H    -2.018000000     7.342000000    -0.576000000
C    -1.343000000     5.909000000    -2.050000000
O    -0.105000000     5.813000000    -1.554000000
C     0.182000000     5.421000000    -0.241000000
C     1.364000000     5.889000000     0.324000000
H     2.047000000     6.431000000    -0.326000000
C     1.648000000     5.572000000     1.669000000
O     2.759000000     5.988000000     2.305000000
C     3.502000000     5.257000000     3.145000000
C     3.315000000     5.520000000     4.504000000
H     2.646000000     6.336000000     4.766000000
C     3.931000000     4.691000000     5.413000000
H     3.615000000     4.718000000     6.452000000
C     4.857000000     3.626000000     5.022000000
H     5.360000000     2.956000000     5.714000000
C     5.088000000     3.438000000     3.666000000
C     4.493000000     4.306000000     2.711000000
H     4.697000000     4.221000000     1.647000000
C     0.872000000     0.849000000    -2.660000000
H     0.651000000     0.849000000    -3.724000000
C     0.274000000    -0.034000000    -1.796000000
H    -0.347000000    -0.847000000    -2.162000000
C     0.375000000     0.187000000    -0.399000000
C    -0.447000000    -0.578000000     0.606000000
H    -0.229000000    -1.643000000     0.502000000
H    -0.177000000    -0.297000000     1.626000000
H    -1.508000000    -0.518000000     0.354000000
C     1.369000000     1.035000000     0.037000000
H     1.598000000     1.169000000     1.091000000
C     2.080000000     1.839000000    -0.879000000
H     2.821000000     2.570000000    -0.567000000
C     1.777000000     1.854000000    -2.236000000
C     2.375000000     2.824000000    -3.165000000
O     3.261000000     3.497000000    -2.756000000
O     2.177000000     2.620000000    -4.376000000
O     1.833000000     2.991000000    -9.339000000
H     2.614000000     3.100000000    -8.796000000
H     1.612000000     3.877000000    -9.624000000
O     4.153000000     1.970000000    -7.904000000
H     3.874000000     1.264000000    -8.486000000
H     4.027000000     1.617000000    -7.023000000
O     2.986000000     6.083000000    -3.305000000
H     2.091000000     6.048000000    -2.968000000
H     3.405000000     5.296000000    -2.956000000
O     3.548000000     4.545000000    -6.039000000
H     3.595000000     3.589000000    -6.003000000
H     3.400000000     4.812000000    -5.132000000
O     0.124000000     3.714000000    -5.738000000
H    -0.078000000     3.001000000    -6.344000000
H     0.893000000     3.409000000    -5.256000000
O     5.874000000     5.671000000    -6.736000000
H     5.056000000     5.283000000    -6.426000000
H     6.146000000     5.109000000    -7.462000000
O     5.732000000    -1.511000000    -6.547000000
H     5.429000000    -0.694000000    -6.150000000
H     6.487000000    -1.768000000    -6.019000000
O     8.682000000     2.231000000    -3.536000000
H     9.213000000     1.491000000    -3.829000000
H     8.332000000     1.954000000    -2.689000000
O    -1.122000000     5.967000000    -6.608000000
H    -1.418000000     5.672000000    -7.469000000
H    -0.865000000     5.164000000    -6.155000000
O     5.554000000     7.501000000    -3.863000000
H     4.628000000     7.265000000    -3.910000000
H     6.019000000     6.671000000    -3.975000000
O     3.725000000     0.669000000    -5.317000000
H     3.351000000     1.450000000    -4.911000000
H     3.076000000    -0.017000000    -5.161000000
O     6.535000000     3.193000000    -0.542000000
H     6.245000000     2.951000000    -1.421000000
H     7.160000000     2.509000000    -0.299000000
O     7.054000000     4.857000000    -3.799000000
H     7.203000000     4.485000000    -4.668000000
H     7.386000000     4.193000000    -3.194000000
O     1.736000000     5.921000000    -7.526000000
H     0.894000000     5.888000000    -7.072000000
H     2.315000000     5.374000000    -6.996000000
O     4.034000000     7.744000000     0.422000000
H     4.688000000     7.094000000     0.164000000
H     3.464000000     7.279000000     1.035000000
O     6.641000000     0.776000000    -5.008000000
H     7.519000000     1.038000000    -5.285000000
H     6.383000000     1.438000000    -4.368000000
O    -0.164000000     1.928000000    -7.513000000
H     0.351000000     2.341000000    -8.205000000
H    -0.699000000     1.277000000    -7.968000000
O     5.718000000     5.890000000    -0.509000000
H     5.825000000     4.957000000    -0.326000000
H     5.796000000     5.957000000    -1.461000000
O     5.562000000     2.186000000    -2.707000000
H     4.777000000     2.721000000    -2.595000000
H     5.265000000     1.289000000    -2.555000000
