218
-1455.96900
C     0.508000000    -3.141000000    -3.574000000
H    -0.478000000    -2.688000000    -3.640000000
C     0.914000000    -3.861000000    -2.487000000
C     2.184000000    -4.421000000    -2.458000000
H     2.613000000    -4.984000000    -1.632000000
C    -0.057000000    -4.046000000    -1.307000000
O    -1.339000000    -4.628000000    -1.690000000
H    -0.334000000    -3.062000000    -0.900000000
O     0.520000000    -4.869000000    -0.302000000
C     0.425000000    -4.616000000     1.041000000
C     1.594000000    -4.090000000     1.593000000
H     2.482000000    -4.023000000     0.970000000
C     1.568000000    -3.625000000     2.859000000
O     2.628000000    -2.864000000     3.289000000
C     0.377000000    -3.564000000     3.589000000
C     0.348000000    -2.865000000     5.011000000
H    -0.448000000    -3.318000000     5.605000000
C     0.127000000    -1.421000000     4.876000000
C    -1.177000000    -0.981000000     4.751000000
H    -2.071000000    -1.600000000     4.731000000
H     1.283000000    -3.045000000     5.545000000
C    -0.759000000    -4.149000000     3.038000000
H    -1.750000000    -4.167000000     3.486000000
C    -0.736000000    -4.690000000     1.730000000
C    -1.998000000    -5.151000000     1.057000000
H    -2.714000000    -5.479000000     1.814000000
H    -1.749000000    -6.056000000     0.499000000
C    -2.715000000    -4.058000000     0.192000000
C    -3.674000000    -3.284000000     0.793000000
H    -3.797000000    -3.374000000     1.869000000
C    -2.404000000    -3.942000000    -1.173000000
C    -3.026000000    -2.922000000    -1.932000000
H    -2.664000000    -2.677000000    -2.927000000
C    -3.972000000    -2.101000000    -1.341000000
O    -4.334000000    -1.030000000    -2.084000000
C    -3.834000000     0.319000000    -1.826000000
C    -3.720000000     1.123000000    -3.067000000
C    -3.733000000     2.539000000    -3.058000000
H    -3.990000000     3.130000000    -2.183000000
C    -3.414000000     0.508000000    -4.247000000
H    -3.296000000    -0.570000000    -4.177000000
O    -4.663000000     1.046000000    -0.903000000
H    -2.832000000     0.193000000    -1.392000000
C    -4.326000000    -2.240000000     0.011000000
C    -5.377000000    -1.328000000     0.610000000
H    -5.924000000    -1.809000000     1.424000000
H    -6.079000000    -0.978000000    -0.149000000
C    -4.608000000    -0.115000000     1.218000000
C    -4.093000000    -0.115000000     2.538000000
H    -4.209000000    -0.973000000     3.195000000
C    -4.405000000     1.043000000     0.497000000
C    -3.778000000     2.137000000     1.036000000
H    -3.683000000     3.068000000     0.482000000
C    -3.312000000     2.140000000     2.359000000
O    -2.502000000     3.178000000     2.874000000
C    -1.070000000     3.004000000     2.743000000
C    -0.377000000     4.208000000     2.136000000
C    -0.834000000     4.795000000     0.966000000
H    -1.602000000     4.334000000     0.351000000
C     0.832000000     4.683000000     2.724000000
H     1.206000000     4.298000000     3.669000000
O    -0.580000000     2.598000000     4.056000000
H    -0.839000000     2.213000000     2.014000000
C    -3.484000000     0.974000000     3.072000000
C    -2.989000000     0.814000000     4.538000000
H    -3.682000000     0.223000000     5.140000000
H    -3.008000000     1.821000000     4.959000000
C    -1.466000000     0.382000000     4.550000000
C    -0.373000000     1.248000000     4.362000000
C     0.933000000     0.855000000     4.455000000
H     1.726000000     1.593000000     4.358000000
C     1.150000000    -0.482000000     4.671000000
O     2.378000000    -0.908000000     4.537000000
C     2.597000000    -1.422000000     3.229000000
H     1.805000000    -1.042000000     2.566000000
C     3.704000000    -0.764000000     2.472000000
C     4.289000000    -1.347000000     1.364000000
H     3.846000000    -2.230000000     0.910000000
C     4.152000000     0.491000000     2.894000000
H     3.670000000     0.994000000     3.728000000
C     5.203000000     1.150000000     2.195000000
O     5.720000000     2.328000000     2.567000000
C     5.839000000     0.456000000     1.204000000
H     6.672000000     0.969000000     0.729000000
C     5.406000000    -0.800000000     0.807000000
O     5.952000000    -1.247000000    -0.383000000
C     5.899000000    -2.602000000    -0.686000000
C     5.115000000    -2.929000000    -1.800000000
H     4.568000000    -2.117000000    -2.273000000
C     6.576000000    -3.597000000    -0.026000000
H     7.214000000    -3.391000000     0.830000000
C     6.365000000    -4.970000000    -0.351000000
H     6.916000000    -5.686000000     0.255000000
C     5.748000000    -5.256000000    -1.517000000
H     5.772000000    -6.300000000    -1.819000000
C     5.118000000    -4.225000000    -2.239000000
O     4.346000000    -4.507000000    -3.352000000
C     3.056000000    -4.122000000    -3.449000000
C     2.607000000    -3.599000000    -4.665000000
H     3.209000000    -3.645000000    -5.569000000
C     1.327000000    -3.116000000    -4.710000000
O     0.926000000    -2.348000000    -5.768000000
C    -0.396000000    -2.173000000    -6.196000000
C    -0.995000000    -0.890000000    -6.220000000
H    -0.461000000    -0.025000000    -5.835000000
C    -1.107000000    -3.214000000    -6.776000000
H    -0.543000000    -4.125000000    -6.963000000
C    -2.443000000    -3.039000000    -7.259000000
H    -2.942000000    -3.844000000    -7.793000000
C    -2.992000000    -1.766000000    -7.222000000
H    -3.968000000    -1.615000000    -7.676000000
C    -2.290000000    -0.770000000    -6.653000000
O    -2.885000000     0.525000000    -6.571000000
C    -3.229000000     1.190000000    -5.430000000
C    -3.383000000     2.597000000    -5.471000000
H    -3.182000000     3.152000000    -6.383000000
C    -3.625000000     3.299000000    -4.270000000
O    -3.585000000     4.643000000    -4.325000000
C    -3.165000000     5.491000000    -3.319000000
C    -1.916000000     5.335000000    -2.716000000
H    -1.242000000     4.666000000    -3.246000000
C    -4.113000000     6.379000000    -2.908000000
H    -5.016000000     6.543000000    -3.490000000
C    -3.862000000     7.136000000    -1.744000000
H    -4.709000000     7.748000000    -1.445000000
C    -2.680000000     6.936000000    -1.015000000
H    -2.526000000     7.462000000    -0.077000000
C    -1.638000000     6.135000000    -1.575000000
O    -0.386000000     6.184000000    -1.025000000
C    -0.040000000     5.764000000     0.294000000
C     1.137000000     6.215000000     0.853000000
H     1.633000000     6.997000000     0.284000000
C     1.599000000     5.677000000     2.085000000
O     2.803000000     6.110000000     2.536000000
C     3.656000000     5.329000000     3.209000000
C     4.033000000     5.714000000     4.523000000
H     3.699000000     6.583000000     5.085000000
C     5.011000000     4.906000000     5.105000000
H     5.458000000     5.166000000     6.061000000
C     5.563000000     3.767000000     4.493000000
H     6.448000000     3.239000000     4.839000000
C     5.108000000     3.350000000     3.303000000
C     4.116000000     4.140000000     2.661000000
H     3.860000000     3.810000000     1.657000000
C     1.305000000    -0.063000000    -2.214000000
H     1.391000000    -0.320000000    -3.266000000
C     0.184000000    -0.464000000    -1.445000000
H    -0.534000000    -1.133000000    -1.912000000
C     0.170000000    -0.155000000    -0.114000000
C    -0.944000000    -0.679000000     0.791000000
H    -1.614000000    -1.373000000     0.279000000
H    -0.428000000    -1.163000000     1.624000000
H    -1.490000000     0.194000000     1.154000000
C     1.125000000     0.622000000     0.494000000
H     1.004000000     0.810000000     1.558000000
C     2.162000000     1.150000000    -0.269000000
H     2.930000000     1.790000000     0.160000000
C     2.269000000     0.675000000    -1.604000000
C     3.399000000     1.159000000    -2.467000000
O     4.142000000     2.043000000    -2.107000000
O     3.520000000     0.723000000    -3.589000000
O     5.106000000     0.800000000    -7.273000000
H     4.236000000     0.722000000    -6.881000000
H     5.296000000     1.738000000    -7.251000000
O     1.721000000     5.316000000    -7.494000000
H     1.736000000     4.366000000    -7.611000000
H     1.926000000     5.447000000    -6.568000000
O     3.764000000     4.732000000    -2.190000000
H     2.960000000     4.939000000    -1.713000000
H     3.859000000     3.784000000    -2.099000000
O     3.648000000     3.028000000    -5.132000000
H     3.922000000     2.460000000    -4.413000000
H     2.783000000     2.702000000    -5.379000000
O    -0.430000000     2.642000000    -1.928000000
H    -0.236000000     1.742000000    -1.668000000
H    -1.375000000     2.728000000    -1.809000000
O     5.334000000     5.203000000    -6.380000000
H     4.860000000     4.588000000    -5.820000000
H     6.253000000     4.947000000    -6.293000000
O     8.026000000     1.987000000    -2.659000000
H     8.896000000     1.672000000    -2.903000000
H     7.427000000     1.504000000    -3.228000000
O     8.051000000    -1.758000000    -4.261000000
H     8.335000000    -2.115000000    -3.419000000
H     7.496000000    -1.013000000    -4.030000000
O     0.825000000     2.957000000    -4.787000000
H     0.246000000     3.634000000    -5.138000000
H     0.787000000     3.078000000    -3.838000000
O     6.474000000     4.231000000    -3.679000000
H     5.941000000     4.473000000    -2.922000000
H     6.235000000     3.322000000    -3.860000000
O     4.721000000     7.158000000    -3.214000000
H     4.507000000     6.303000000    -2.841000000
H     4.136000000     7.769000000    -2.765000000
O     2.711000000     0.293000000    -5.992000000
H     2.949000000     0.530000000    -5.096000000
H     2.265000000    -0.549000000    -5.907000000
O     7.837000000     3.537000000     0.800000000
H     7.289000000     3.468000000     0.018000000
H     8.366000000     2.739000000     0.793000000
O     8.883000000     5.139000000    -2.198000000
H     9.574000000     4.796000000    -2.766000000
H     8.245000000     4.428000000    -2.141000000
O     2.648000000     5.746000000    -4.900000000
H     3.074000000     4.891000000    -4.956000000
H     3.368000000     6.375000000    -4.951000000
O     6.051000000     1.345000000    -4.293000000
H     5.809000000     1.291000000    -5.217000000
H     5.216000000     1.344000000    -3.826000000
O     1.408000000     2.575000000    -7.618000000
H     1.260000000     1.881000000    -8.262000000
H     1.164000000     2.181000000    -6.781000000
O     6.397000000     5.959000000     0.769000000
H     6.759000000     5.073000000     0.759000000
H     7.082000000     6.502000000     0.380000000
O     6.262000000     2.990000000    -1.132000000
H     5.421000000     2.628000000    -1.411000000
H     6.896000000     2.625000000    -1.749000000
