218
-1443.52180
C     1.748000000    -2.330000000    -4.021000000
H     0.764000000    -1.882000000    -4.134000000
C     1.774000000    -3.385000000    -3.124000000
C     2.956000000    -4.019000000    -2.858000000
H     3.097000000    -4.767000000    -2.081000000
C     0.547000000    -3.717000000    -2.332000000
O    -0.609000000    -3.861000000    -3.193000000
H     0.290000000    -2.884000000    -1.661000000
O     0.783000000    -4.908000000    -1.616000000
C     0.464000000    -4.848000000    -0.258000000
C     1.402000000    -4.338000000     0.645000000
H     2.470000000    -4.414000000     0.457000000
C     1.002000000    -4.012000000     1.886000000
O     2.009000000    -3.365000000     2.639000000
C    -0.310000000    -4.164000000     2.348000000
C    -0.703000000    -3.813000000     3.744000000
H    -1.533000000    -4.344000000     4.214000000
C    -1.061000000    -2.351000000     3.787000000
C    -2.354000000    -1.930000000     3.583000000
H    -3.194000000    -2.610000000     3.467000000
H     0.208000000    -3.928000000     4.336000000
C    -1.265000000    -4.530000000     1.379000000
H    -2.310000000    -4.607000000     1.670000000
C    -0.919000000    -4.855000000     0.076000000
C    -2.018000000    -5.155000000    -0.908000000
H    -2.800000000    -5.628000000    -0.310000000
H    -1.658000000    -5.962000000    -1.549000000
C    -2.546000000    -3.927000000    -1.669000000
C    -3.665000000    -3.296000000    -1.115000000
H    -4.217000000    -3.714000000    -0.277000000
C    -1.822000000    -3.349000000    -2.736000000
C    -2.325000000    -2.127000000    -3.272000000
H    -1.726000000    -1.693000000    -4.069000000
C    -3.403000000    -1.509000000    -2.684000000
O    -3.773000000    -0.311000000    -3.235000000
C    -3.430000000     0.901000000    -2.459000000
C    -2.838000000     1.911000000    -3.431000000
C    -2.776000000     3.249000000    -3.031000000
H    -3.302000000     3.523000000    -2.120000000
C    -2.045000000     1.551000000    -4.485000000
H    -1.988000000     0.494000000    -4.732000000
O    -4.583000000     1.359000000    -1.767000000
H    -2.647000000     0.663000000    -1.724000000
C    -4.088000000    -2.116000000    -1.631000000
C    -5.327000000    -1.431000000    -1.030000000
H    -6.057000000    -2.089000000    -0.555000000
H    -5.875000000    -0.943000000    -1.839000000
C    -5.033000000    -0.324000000    -0.008000000
C    -4.838000000    -0.664000000     1.281000000
H    -4.915000000    -1.712000000     1.559000000
C    -4.690000000     1.011000000    -0.414000000
C    -4.325000000     1.929000000     0.559000000
H    -4.047000000     2.936000000     0.256000000
C    -4.197000000     1.580000000     1.857000000
O    -3.536000000     2.519000000     2.596000000
C    -2.093000000     2.324000000     2.823000000
C    -1.288000000     3.655000000     2.746000000
C    -1.431000000     4.559000000     1.701000000
H    -2.123000000     4.382000000     0.882000000
C    -0.260000000     3.903000000     3.722000000
H    -0.029000000     3.336000000     4.620000000
O    -1.958000000     1.686000000     4.140000000
H    -1.681000000     1.642000000     2.064000000
C    -4.461000000     0.227000000     2.303000000
C    -4.186000000    -0.203000000     3.760000000
H    -4.803000000    -1.042000000     4.089000000
H    -4.326000000     0.576000000     4.512000000
C    -2.733000000    -0.621000000     3.809000000
C    -1.759000000     0.325000000     4.146000000
C    -0.472000000    -0.079000000     4.277000000
H     0.185000000     0.739000000     4.558000000
C    -0.109000000    -1.397000000     4.109000000
O     1.292000000    -1.599000000     4.148000000
C     1.831000000    -1.913000000     2.850000000
H     1.351000000    -1.392000000     2.009000000
C     3.133000000    -1.200000000     2.895000000
C     4.048000000    -1.511000000     1.825000000
H     3.856000000    -2.311000000     1.115000000
C     3.504000000    -0.172000000     3.805000000
H     2.751000000     0.194000000     4.498000000
C     4.673000000     0.500000000     3.680000000
O     4.877000000     1.642000000     4.448000000
C     5.676000000     0.012000000     2.767000000
H     6.563000000     0.636000000     2.698000000
C     5.370000000    -0.973000000     1.854000000
O     6.340000000    -1.461000000     1.010000000
C     6.283000000    -2.649000000     0.327000000
C     5.713000000    -2.784000000    -0.901000000
H     5.389000000    -1.834000000    -1.316000000
C     6.910000000    -3.697000000     0.936000000
H     7.314000000    -3.509000000     1.927000000
C     6.966000000    -4.872000000     0.248000000
H     7.608000000    -5.661000000     0.631000000
C     6.479000000    -5.042000000    -0.998000000
H     6.499000000    -5.964000000    -1.572000000
C     5.737000000    -3.982000000    -1.567000000
O     5.335000000    -4.081000000    -2.888000000
C     4.120000000    -3.576000000    -3.339000000
C     4.127000000    -2.468000000    -4.188000000
H     5.060000000    -2.083000000    -4.590000000
C     2.894000000    -1.870000000    -4.555000000
O     2.802000000    -0.704000000    -5.213000000
C     1.752000000    -0.386000000    -6.082000000
C     0.991000000     0.804000000    -5.922000000
H     1.400000000     1.553000000    -5.249000000
C     1.256000000    -1.330000000    -7.037000000
H     1.750000000    -2.296000000    -7.100000000
C     0.106000000    -1.059000000    -7.786000000
H    -0.128000000    -1.834000000    -8.511000000
C    -0.569000000     0.073000000    -7.583000000
H    -1.533000000     0.128000000    -8.082000000
C    -0.092000000     1.068000000    -6.716000000
O    -0.987000000     2.182000000    -6.481000000
C    -1.506000000     2.523000000    -5.325000000
C    -1.686000000     3.832000000    -5.073000000
H    -1.436000000     4.615000000    -5.784000000
C    -2.396000000     4.173000000    -3.932000000
O    -2.592000000     5.529000000    -3.714000000
C    -2.816000000     6.047000000    -2.475000000
C    -1.709000000     6.117000000    -1.586000000
H    -0.797000000     5.633000000    -1.928000000
C    -4.062000000     6.570000000    -2.103000000
H    -4.918000000     6.410000000    -2.753000000
C    -4.219000000     7.097000000    -0.763000000
H    -5.213000000     7.399000000    -0.442000000
C    -3.087000000     7.111000000     0.037000000
H    -3.286000000     7.367000000     1.075000000
C    -1.840000000     6.674000000    -0.358000000
O    -0.803000000     6.624000000     0.532000000
C    -0.674000000     5.717000000     1.585000000
C     0.423000000     5.912000000     2.482000000
H     1.047000000     6.798000000     2.388000000
C     0.621000000     5.014000000     3.493000000
O     1.675000000     5.173000000     4.406000000
C     2.244000000     4.067000000     5.057000000
C     2.151000000     3.959000000     6.429000000
H     1.502000000     4.597000000     7.024000000
C     2.790000000     2.983000000     7.132000000
H     2.496000000     2.888000000     8.175000000
C     3.688000000     2.183000000     6.430000000
H     4.353000000     1.454000000     6.887000000
C     3.940000000     2.396000000     5.090000000
C     3.172000000     3.304000000     4.403000000
H     3.292000000     3.386000000     3.326000000
C     0.456000000     2.222000000    -1.139000000
H     0.169000000     3.247000000    -1.359000000
C    -0.368000000     1.466000000    -0.353000000
H    -1.290000000     1.901000000     0.026000000
C     0.037000000     0.147000000    -0.116000000
C    -0.961000000    -0.830000000     0.451000000
H    -1.760000000    -0.440000000     1.086000000
H    -1.590000000    -1.324000000    -0.293000000
H    -0.416000000    -1.586000000     1.020000000
C     1.248000000    -0.383000000    -0.671000000
H     1.559000000    -1.406000000    -0.470000000
C     2.050000000     0.439000000    -1.497000000
H     3.058000000     0.134000000    -1.766000000
C     1.648000000     1.773000000    -1.697000000
C     2.622000000     2.715000000    -2.435000000
O     3.646000000     2.291000000    -2.987000000
O     2.267000000     3.830000000    -2.738000000
O     1.366000000     4.424000000    -7.549000000
H     2.236000000     4.361000000    -7.156000000
H     1.333000000     3.700000000    -8.174000000
O     3.733000000     6.090000000     0.548000000
H     3.611000000     5.431000000     1.231000000
H     4.493000000     6.596000000     0.835000000
O     5.987000000     1.993000000     0.130000000
H     5.505000000     2.389000000     0.856000000
H     6.030000000     2.683000000    -0.533000000
O     0.914000000     6.295000000    -3.756000000
H     1.202000000     5.513000000    -3.284000000
H     0.614000000     5.966000000    -4.603000000
O     4.164000000     5.769000000    -2.147000000
H     3.585000000     5.029000000    -2.331000000
H     3.976000000     5.999000000    -1.237000000
O     2.424000000     8.073000000    -5.179000000
H     2.555000000     8.949000000    -4.816000000
H     1.550000000     7.819000000    -4.882000000
O     4.523000000     1.477000000    -5.416000000
H     4.058000000     0.647000000    -5.305000000
H     4.318000000     1.974000000    -4.624000000
O     5.211000000     8.326000000    -2.630000000
H     4.751000000     7.486000000    -2.631000000
H     6.039000000     8.145000000    -2.187000000
O     4.825000000     6.670000000    -7.635000000
H     4.745000000     5.884000000    -8.175000000
H     4.808000000     6.345000000    -6.734000000
O     7.224000000     5.322000000     0.418000000
H     6.835000000     4.679000000     1.012000000
H     7.766000000     5.873000000     0.983000000
O     1.030000000     7.903000000    -1.473000000
H     1.441000000     7.568000000    -2.270000000
H     0.267000000     7.340000000    -1.342000000
O     3.629000000     2.255000000    -8.008000000
H     3.287000000     1.397000000    -8.257000000
H     4.046000000     2.110000000    -7.159000000
O     3.263000000     4.325000000    -5.459000000
H     2.876000000     4.003000000    -4.645000000
H     3.724000000     5.125000000    -5.206000000
O     6.887000000     2.983000000    -5.827000000
H     6.873000000     3.404000000    -4.967000000
H     6.012000000     2.609000000    -5.926000000
O     7.533000000    -0.614000000    -3.735000000
H     6.659000000    -0.482000000    -3.367000000
H     8.105000000    -0.690000000    -2.971000000
O     8.332000000     2.634000000    -1.371000000
H     7.618000000     2.477000000    -1.990000000
H     8.084000000     2.140000000    -0.590000000
O     6.216000000     3.596000000    -3.106000000
H     6.177000000     4.502000000    -2.802000000
H     5.308000000     3.296000000    -3.084000000
O     4.536000000     6.556000000    -4.861000000
H     3.771000000     7.117000000    -4.988000000
H     4.533000000     6.357000000    -3.925000000
O     5.523000000     0.339000000    -2.115000000
H     4.861000000     0.930000000    -2.471000000
H     5.336000000     0.308000000    -1.177000000
