218
-1440.46382
C     1.609000000    -2.002000000    -3.677000000
H     0.683000000    -1.476000000    -3.899000000
C     1.618000000    -3.164000000    -3.001000000
C     2.836000000    -3.841000000    -2.730000000
H     2.912000000    -4.703000000    -2.072000000
C     0.280000000    -3.533000000    -2.413000000
O    -0.854000000    -3.399000000    -3.327000000
H     0.143000000    -2.766000000    -1.637000000
O     0.242000000    -4.872000000    -1.871000000
C    -0.230000000    -4.919000000    -0.562000000
C     0.690000000    -4.630000000     0.403000000
H     1.751000000    -4.631000000     0.164000000
C     0.331000000    -4.556000000     1.748000000
O     1.296000000    -4.192000000     2.618000000
C    -1.064000000    -4.515000000     2.073000000
C    -1.442000000    -4.355000000     3.530000000
H    -2.342000000    -4.961000000     3.658000000
C    -1.642000000    -2.794000000     3.836000000
C    -2.923000000    -2.218000000     3.666000000
H    -3.723000000    -2.826000000     3.250000000
H    -0.744000000    -4.811000000     4.236000000
C    -1.988000000    -4.672000000     1.041000000
H    -3.024000000    -4.693000000     1.367000000
C    -1.571000000    -4.899000000    -0.310000000
C    -2.643000000    -4.795000000    -1.390000000
H    -3.553000000    -5.376000000    -1.227000000
H    -2.185000000    -5.280000000    -2.254000000
C    -2.863000000    -3.347000000    -1.914000000
C    -4.039000000    -2.635000000    -1.507000000
H    -4.718000000    -3.089000000    -0.790000000
C    -2.046000000    -2.804000000    -2.965000000
C    -2.305000000    -1.472000000    -3.335000000
H    -1.536000000    -0.984000000    -3.928000000
C    -3.448000000    -0.851000000    -2.880000000
O    -3.540000000     0.425000000    -3.328000000
C    -3.165000000     1.497000000    -2.467000000
C    -2.491000000     2.619000000    -3.244000000
C    -2.306000000     3.863000000    -2.575000000
H    -2.682000000     3.964000000    -1.560000000
C    -1.848000000     2.396000000    -4.433000000
H    -2.010000000     1.485000000    -5.004000000
O    -4.332000000     2.040000000    -1.742000000
H    -2.359000000     1.139000000    -1.810000000
C    -4.291000000    -1.370000000    -1.926000000
C    -5.540000000    -0.641000000    -1.391000000
H    -6.308000000    -1.365000000    -1.111000000
H    -5.955000000     0.064000000    -2.115000000
C    -5.062000000     0.201000000    -0.205000000
C    -5.146000000    -0.261000000     1.105000000
H    -5.623000000    -1.231000000     1.214000000
C    -4.450000000     1.497000000    -0.463000000
C    -3.950000000     2.204000000     0.627000000
H    -3.583000000     3.212000000     0.456000000
C    -3.945000000     1.656000000     1.949000000
O    -3.345000000     2.411000000     2.978000000
C    -1.959000000     2.125000000     3.329000000
C    -1.192000000     3.376000000     3.511000000
C    -1.670000000     4.481000000     2.823000000
H    -2.518000000     4.419000000     2.146000000
C     0.084000000     3.435000000     4.105000000
H     0.551000000     2.579000000     4.585000000
O    -1.941000000     1.260000000     4.428000000
H    -1.474000000     1.680000000     2.448000000
C    -4.575000000     0.412000000     2.156000000
C    -4.412000000    -0.185000000     3.515000000
H    -5.260000000    -0.858000000     3.666000000
H    -4.595000000     0.593000000     4.259000000
C    -3.047000000    -0.815000000     3.833000000
C    -1.899000000    -0.057000000     4.239000000
C    -0.678000000    -0.655000000     4.385000000
H     0.196000000    -0.126000000     4.758000000
C    -0.512000000    -2.014000000     4.193000000
O     0.782000000    -2.353000000     4.130000000
C     1.317000000    -2.740000000     2.847000000
H     0.739000000    -2.279000000     2.032000000
C     2.713000000    -2.173000000     2.641000000
C     3.854000000    -2.963000000     2.241000000
H     3.729000000    -4.036000000     2.118000000
C     2.934000000    -0.781000000     2.820000000
H     2.207000000    -0.034000000     3.127000000
C     4.185000000    -0.244000000     2.593000000
O     4.262000000     1.116000000     2.585000000
C     5.277000000    -1.005000000     2.123000000
H     6.164000000    -0.468000000     1.796000000
C     5.062000000    -2.358000000     1.995000000
O     6.114000000    -3.252000000     1.639000000
C     6.215000000    -3.900000000     0.525000000
C     5.608000000    -3.463000000    -0.621000000
H     5.222000000    -2.465000000    -0.808000000
C     6.929000000    -5.053000000     0.573000000
H     7.207000000    -5.461000000     1.542000000
C     7.075000000    -5.851000000    -0.586000000
H     7.609000000    -6.793000000    -0.492000000
C     6.376000000    -5.437000000    -1.737000000
H     6.426000000    -5.997000000    -2.668000000
C     5.675000000    -4.267000000    -1.768000000
O     5.173000000    -3.883000000    -3.044000000
C     3.997000000    -3.272000000    -3.242000000
C     4.001000000    -2.132000000    -4.036000000
H     4.920000000    -1.766000000    -4.484000000
C     2.763000000    -1.529000000    -4.261000000
O     2.709000000    -0.419000000    -5.139000000
C     1.606000000     0.014000000    -5.846000000
C     1.130000000     1.282000000    -5.601000000
H     1.475000000     1.788000000    -4.704000000
C     1.243000000    -0.721000000    -6.946000000
H     1.744000000    -1.676000000    -7.080000000
C     0.365000000    -0.150000000    -7.871000000
H     0.334000000    -0.730000000    -8.789000000
C    -0.127000000     1.155000000    -7.690000000
H    -0.837000000     1.620000000    -8.369000000
C     0.225000000     1.835000000    -6.523000000
O    -0.395000000     3.068000000    -6.223000000
C    -0.956000000     3.314000000    -4.974000000
C    -0.725000000     4.547000000    -4.253000000
H    -0.227000000     5.402000000    -4.703000000
C    -1.400000000     4.805000000    -3.052000000
O    -1.263000000     5.984000000    -2.396000000
C    -2.040000000     6.354000000    -1.297000000
C    -1.535000000     6.273000000    -0.025000000
H    -0.564000000     5.844000000     0.211000000
C    -3.321000000     6.895000000    -1.448000000
H    -3.705000000     6.962000000    -2.462000000
C    -3.971000000     7.461000000    -0.352000000
H    -4.891000000     8.001000000    -0.565000000
C    -3.339000000     7.446000000     0.919000000
H    -3.603000000     8.036000000     1.793000000
C    -2.142000000     6.784000000     1.094000000
O    -1.434000000     6.759000000     2.285000000
C    -0.951000000     5.684000000     2.879000000
C     0.233000000     5.812000000     3.626000000
H     0.787000000     6.747000000     3.632000000
C     0.852000000     4.629000000     4.086000000
O     2.062000000     4.738000000     4.829000000
C     2.968000000     3.720000000     4.892000000
C     3.828000000     3.674000000     5.914000000
H     3.717000000     4.190000000     6.864000000
C     4.869000000     2.725000000     5.879000000
H     5.631000000     2.738000000     6.655000000
C     4.956000000     1.907000000     4.787000000
H     5.738000000     1.160000000     4.682000000
C     4.155000000     1.971000000     3.736000000
C     3.134000000     2.908000000     3.745000000
H     2.382000000     2.850000000     2.962000000
C     1.323000000     1.849000000    -1.777000000
H     1.124000000     2.720000000    -2.396000000
C     0.178000000     1.290000000    -1.142000000
H    -0.665000000     1.973000000    -1.201000000
C     0.231000000     0.095000000    -0.438000000
C    -0.960000000    -0.438000000     0.282000000
H    -1.579000000    -1.195000000    -0.203000000
H    -0.573000000    -0.883000000     1.201000000
H    -1.633000000     0.338000000     0.654000000
C     1.461000000    -0.489000000    -0.356000000
H     1.506000000    -1.344000000     0.315000000
C     2.627000000     0.021000000    -0.906000000
H     3.546000000    -0.554000000    -0.826000000
C     2.571000000     1.254000000    -1.638000000
C     3.732000000     1.710000000    -2.428000000
O     4.771000000     1.188000000    -2.188000000
O     3.638000000     2.616000000    -3.208000000
O     4.385000000     0.621000000    -8.424000000
H     4.839000000    -0.215000000    -8.316000000
H     4.101000000     0.855000000    -7.541000000
O     5.248000000     6.009000000    -5.315000000
H     5.322000000     6.852000000    -4.867000000
H     5.129000000     5.373000000    -4.609000000
O     8.100000000     4.788000000    -0.284000000
H     7.966000000     4.819000000     0.663000000
H     7.485000000     5.432000000    -0.635000000
O     5.106000000     2.390000000     0.142000000
H     5.030000000     1.963000000    -0.711000000
H     4.766000000     1.746000000     0.763000000
O     8.561000000    -2.196000000    -2.817000000
H     7.957000000    -1.515000000    -2.519000000
H     8.888000000    -2.596000000    -2.011000000
O     6.565000000     2.032000000    -3.914000000
H     6.824000000     2.914000000    -3.646000000
H     5.797000000     1.835000000    -3.377000000
O     7.707000000     0.231000000    -5.905000000
H     8.375000000     0.861000000    -6.176000000
H     7.189000000     0.699000000    -5.250000000
O     6.720000000     3.722000000    -6.590000000
H     6.246000000     4.541000000    -6.442000000
H     7.533000000     3.822000000    -6.095000000
O     3.097000000     7.491000000    -2.575000000
H     2.732000000     6.617000000    -2.715000000
H     3.401000000     7.481000000    -1.667000000
O     0.946000000     3.337000000     0.916000000
H     1.382000000     3.800000000     0.201000000
H     0.835000000     2.443000000     0.590000000
O     9.175000000     3.502000000    -3.158000000
H     9.918000000     3.769000000    -2.618000000
H     8.954000000     2.625000000    -2.846000000
O     7.481000000     1.316000000     1.926000000
H     7.327000000     1.747000000     1.086000000
H     7.794000000     2.015000000     2.500000000
O     3.695000000     6.950000000    -0.114000000
H     3.956000000     6.178000000     0.388000000
H     3.411000000     7.580000000     0.548000000
O     4.261000000     2.444000000    -6.029000000
H     5.181000000     2.709000000    -6.052000000
H     3.999000000     2.563000000    -5.116000000
O     2.593000000     5.124000000    -3.879000000
H     2.542000000     4.878000000    -4.802000000
H     2.897000000     4.332000000    -3.436000000
O     8.353000000     2.113000000    -0.451000000
H     7.989000000     2.994000000    -0.364000000
H     9.181000000     2.147000000     0.029000000
O     5.651000000     4.579000000    -2.517000000
H     4.875000000     4.045000000    -2.689000000
H     6.065000000     4.165000000    -1.760000000
O     6.847000000    -0.232000000    -1.493000000
H     7.439000000     0.519000000    -1.512000000
H     6.003000000     0.121000000    -1.772000000
O     4.801000000     4.946000000     1.516000000
H     4.727000000     4.016000000     1.299000000
H     5.735000000     5.137000000     1.436000000
