218
-1467.90783
C     1.310000000    -3.531000000    -3.259000000
H     0.285000000    -3.847000000    -3.437000000
C     1.789000000    -3.663000000    -1.929000000
C     3.125000000    -3.319000000    -1.711000000
H     3.478000000    -3.289000000    -0.683000000
C     0.840000000    -4.006000000    -0.819000000
O    -0.361000000    -4.614000000    -1.329000000
H     0.529000000    -3.060000000    -0.352000000
O     1.417000000    -4.759000000     0.270000000
C     1.121000000    -4.224000000     1.449000000
C     2.023000000    -3.325000000     1.973000000
H     3.016000000    -3.116000000     1.582000000
C     1.767000000    -2.756000000     3.175000000
O     2.594000000    -1.850000000     3.587000000
C     0.558000000    -2.926000000     3.806000000
C     0.228000000    -2.179000000     5.104000000
H    -0.519000000    -2.654000000     5.744000000
C    -0.219000000    -0.717000000     4.813000000
C    -1.573000000    -0.505000000     4.606000000
H    -2.220000000    -1.378000000     4.637000000
H     1.124000000    -2.069000000     5.718000000
C    -0.430000000    -3.694000000     3.218000000
H    -1.366000000    -3.944000000     3.711000000
C    -0.178000000    -4.414000000     2.033000000
C    -1.243000000    -5.227000000     1.333000000
H    -1.891000000    -5.559000000     2.147000000
H    -0.771000000    -6.017000000     0.745000000
C    -2.058000000    -4.318000000     0.419000000
C    -3.212000000    -3.667000000     0.908000000
H    -3.585000000    -3.873000000     1.908000000
C    -1.586000000    -4.097000000    -0.851000000
C    -2.323000000    -3.346000000    -1.720000000
H    -1.977000000    -3.112000000    -2.724000000
C    -3.542000000    -2.791000000    -1.303000000
O    -4.148000000    -1.955000000    -2.242000000
C    -3.878000000    -0.570000000    -2.157000000
C    -3.706000000    -0.065000000    -3.531000000
C    -3.929000000     1.288000000    -3.783000000
H    -4.391000000     1.888000000    -3.002000000
C    -3.180000000    -0.860000000    -4.520000000
H    -2.985000000    -1.916000000    -4.353000000
O    -4.858000000     0.178000000    -1.368000000
H    -2.906000000    -0.405000000    -1.670000000
C    -3.933000000    -2.896000000     0.061000000
C    -5.080000000    -2.098000000     0.595000000
H    -5.470000000    -2.587000000     1.491000000
H    -5.832000000    -2.086000000    -0.197000000
C    -4.746000000    -0.642000000     0.934000000
C    -4.428000000    -0.410000000     2.221000000
H    -4.509000000    -1.182000000     2.982000000
C    -4.570000000     0.368000000    -0.001000000
C    -4.075000000     1.589000000     0.386000000
H    -3.940000000     2.389000000    -0.337000000
C    -3.710000000     1.784000000     1.683000000
O    -3.268000000     3.026000000     2.071000000
C    -1.838000000     3.112000000     2.285000000
C    -1.119000000     4.205000000     1.539000000
C    -1.343000000     4.213000000     0.210000000
H    -2.170000000     3.634000000    -0.194000000
C    -0.063000000     4.886000000     2.063000000
H     0.126000000     4.762000000     3.126000000
O    -1.531000000     3.090000000     3.664000000
H    -1.357000000     2.250000000     1.801000000
C    -3.892000000     0.773000000     2.655000000
C    -3.492000000     0.995000000     4.107000000
H    -4.157000000     0.279000000     4.595000000
H    -3.974000000     1.923000000     4.422000000
C    -2.042000000     0.800000000     4.437000000
C    -1.141000000     1.904000000     4.263000000
C     0.196000000     1.636000000     4.357000000
H     0.931000000     2.416000000     4.173000000
C     0.636000000     0.341000000     4.597000000
O     1.930000000     0.158000000     4.485000000
C     2.411000000    -0.413000000     3.302000000
H     1.668000000    -0.287000000     2.501000000
C     3.602000000     0.314000000     2.825000000
C     4.613000000    -0.381000000     2.090000000
H     4.468000000    -1.436000000     1.872000000
C     3.819000000     1.663000000     3.127000000
H     3.138000000     2.218000000     3.769000000
C     4.927000000     2.340000000     2.764000000
O     5.191000000     3.581000000     3.332000000
C     5.910000000     1.667000000     2.074000000
H     6.811000000     2.242000000     1.874000000
C     5.712000000     0.358000000     1.695000000
O     6.714000000    -0.265000000     1.018000000
C     6.670000000    -1.526000000     0.470000000
C     6.212000000    -1.630000000    -0.826000000
H     6.057000000    -0.775000000    -1.479000000
C     6.763000000    -2.658000000     1.257000000
H     7.107000000    -2.437000000     2.265000000
C     6.685000000    -3.969000000     0.750000000
H     6.737000000    -4.801000000     1.449000000
C     6.115000000    -4.080000000    -0.572000000
H     5.822000000    -5.048000000    -0.969000000
C     5.950000000    -2.907000000    -1.314000000
O     5.337000000    -2.864000000    -2.499000000
C     4.000000000    -3.096000000    -2.729000000
C     3.518000000    -2.793000000    -4.031000000
H     4.137000000    -2.383000000    -4.825000000
C     2.144000000    -3.045000000    -4.265000000
O     1.758000000    -2.772000000    -5.555000000
C     0.440000000    -3.020000000    -5.944000000
C    -0.418000000    -1.975000000    -6.205000000
H    -0.092000000    -0.943000000    -6.105000000
C    -0.015000000    -4.319000000    -6.194000000
H     0.641000000    -5.166000000    -6.010000000
C    -1.314000000    -4.545000000    -6.624000000
H    -1.660000000    -5.562000000    -6.790000000
C    -2.160000000    -3.485000000    -6.787000000
H    -3.196000000    -3.548000000    -7.111000000
C    -1.756000000    -2.182000000    -6.585000000
O    -2.636000000    -1.126000000    -6.842000000
C    -3.021000000    -0.369000000    -5.800000000
C    -3.263000000     0.994000000    -6.060000000
H    -3.320000000     1.302000000    -7.101000000
C    -3.655000000     1.862000000    -5.066000000
O    -3.845000000     3.174000000    -5.357000000
C    -3.569000000     4.090000000    -4.333000000
C    -2.355000000     4.173000000    -3.701000000
H    -1.566000000     3.465000000    -3.941000000
C    -4.578000000     4.951000000    -3.958000000
H    -5.491000000     4.768000000    -4.519000000
C    -4.391000000     5.898000000    -2.993000000
H    -5.137000000     6.586000000    -2.605000000
C    -3.188000000     5.889000000    -2.229000000
H    -3.117000000     6.582000000    -1.395000000
C    -2.097000000     5.093000000    -2.603000000
O    -0.887000000     5.050000000    -1.961000000
C    -0.669000000     5.044000000    -0.630000000
C     0.390000000     5.774000000    -0.122000000
H     1.031000000     6.345000000    -0.789000000
C     0.746000000     5.670000000     1.224000000
O     1.771000000     6.570000000     1.703000000
C     2.586000000     6.086000000     2.679000000
C     2.585000000     6.775000000     3.903000000
H     1.828000000     7.551000000     3.972000000
C     3.396000000     6.318000000     4.944000000
H     3.358000000     6.867000000     5.882000000
C     4.277000000     5.283000000     4.758000000
H     4.984000000     5.037000000     5.546000000
C     4.219000000     4.511000000     3.610000000
C     3.398000000     4.961000000     2.554000000
H     3.478000000     4.414000000     1.618000000
C     0.714000000     1.286000000    -2.489000000
H     0.252000000     1.936000000    -3.228000000
C    -0.098000000     0.838000000    -1.486000000
H    -1.155000000     1.092000000    -1.494000000
C     0.341000000    -0.077000000    -0.462000000
C    -0.617000000    -0.740000000     0.540000000
H    -1.565000000    -0.238000000     0.744000000
H    -0.846000000    -1.723000000     0.123000000
H    -0.163000000    -1.002000000     1.498000000
C     1.629000000    -0.528000000    -0.552000000
H     2.065000000    -1.265000000     0.118000000
C     2.467000000     0.024000000    -1.542000000
H     3.511000000    -0.278000000    -1.581000000
C     2.080000000     0.989000000    -2.450000000
C     3.069000000     1.490000000    -3.481000000
O     4.202000000     1.086000000    -3.477000000
O     2.736000000     2.165000000    -4.454000000
O    -0.163000000     3.816000000    -7.560000000
H    -0.967000000     4.307000000    -7.733000000
H     0.259000000     4.293000000    -6.845000000
O     5.893000000    -0.262000000    -7.422000000
H     5.284000000    -0.673000000    -8.035000000
H     5.335000000     0.082000000    -6.724000000
O     1.294000000     4.330000000    -5.062000000
H     1.327000000     4.584000000    -4.140000000
H     1.703000000     3.466000000    -5.088000000
O     6.957000000    -0.055000000    -3.762000000
H     6.067000000     0.217000000    -3.537000000
H     7.488000000     0.218000000    -3.014000000
O     2.968000000     6.962000000    -3.707000000
H     3.515000000     7.747000000    -3.687000000
H     3.555000000     6.269000000    -4.008000000
O     5.896000000     2.580000000    -2.025000000
H     5.279000000     1.888000000    -2.266000000
H     5.360000000     3.371000000    -1.974000000
O     4.934000000     4.955000000    -1.470000000
H     4.236000000     5.521000000    -1.140000000
H     4.909000000     5.071000000    -2.420000000
O     7.251000000     4.560000000     0.293000000
H     7.870000000     4.787000000    -0.401000000
H     6.407000000     4.486000000    -0.153000000
O     0.215000000     1.318000000    -7.100000000
H     0.900000000     1.357000000    -6.433000000
H     0.057000000     2.233000000    -7.334000000
O     5.250000000     5.551000000    -4.264000000
H     6.165000000     5.826000000    -4.195000000
H     5.247000000     4.909000000    -4.974000000
O     1.896000000    -1.700000000    -8.669000000
H     1.920000000    -0.761000000    -8.485000000
H     1.610000000    -2.098000000    -7.847000000
O     5.017000000     3.220000000    -5.406000000
H     5.667000000     2.649000000    -4.997000000
H     4.175000000     2.847000000    -5.147000000
O     3.127000000     0.474000000    -6.382000000
H     3.107000000     1.049000000    -5.616000000
H     2.684000000    -0.324000000    -6.094000000
O     2.129000000     6.434000000    -6.373000000
H     1.746000000     5.733000000    -5.845000000
H     2.391000000     7.098000000    -5.736000000
O     8.355000000     3.906000000    -2.562000000
H     9.016000000     3.222000000    -2.670000000
H     7.569000000     3.438000000    -2.281000000
O     3.596000000     1.870000000    -8.783000000
H     3.778000000     2.796000000    -8.627000000
H     3.504000000     1.493000000    -7.908000000
O     7.344000000    -2.145000000    -5.804000000
H     6.799000000    -1.744000000    -6.480000000
H     7.496000000    -1.443000000    -5.171000000
O     4.877000000     4.189000000    -7.966000000
H     4.945000000     3.839000000    -7.078000000
H     5.768000000     4.134000000    -8.313000000
O     8.610000000     0.983000000    -1.660000000
H     7.956000000     1.435000000    -1.127000000
H     9.342000000     0.830000000    -1.063000000
