218
-1483.87159
C     0.608000000    -5.279000000    -0.991000000
H    -0.452000000    -5.486000000    -0.865000000
C     1.298000000    -4.540000000     0.017000000
C     2.529000000    -4.119000000    -0.316000000
H     3.000000000    -3.474000000     0.421000000
C     0.633000000    -3.963000000     1.234000000
O    -0.541000000    -4.786000000     1.681000000
H     0.288000000    -2.942000000     1.014000000
O     1.592000000    -4.058000000     2.368000000
C     1.542000000    -2.973000000     3.280000000
C     2.485000000    -2.049000000     2.967000000
H     3.239000000    -2.327000000     2.235000000
C     2.536000000    -0.796000000     3.623000000
O     3.558000000     0.049000000     3.371000000
C     1.525000000    -0.476000000     4.555000000
C     1.523000000     0.947000000     5.228000000
H     0.898000000     0.838000000     6.117000000
C     0.938000000     2.010000000     4.314000000
C    -0.426000000     2.192000000     4.295000000
H    -1.062000000     1.748000000     5.056000000
H     2.557000000     1.154000000     5.512000000
C     0.630000000    -1.469000000     4.872000000
H    -0.168000000    -1.258000000     5.578000000
C     0.560000000    -2.711000000     4.199000000
C    -0.681000000    -3.627000000     4.406000000
H    -1.101000000    -3.627000000     5.414000000
H    -0.313000000    -4.652000000     4.325000000
C    -1.729000000    -3.365000000     3.340000000
C    -2.748000000    -2.477000000     3.627000000
H    -3.005000000    -2.054000000     4.595000000
C    -1.600000000    -3.997000000     2.046000000
C    -2.440000000    -3.630000000     1.027000000
H    -2.201000000    -3.990000000     0.029000000
C    -3.429000000    -2.696000000     1.209000000
O    -4.223000000    -2.350000000     0.147000000
C    -3.895000000    -1.081000000    -0.570000000
C    -3.849000000    -1.331000000    -2.070000000
C    -4.006000000    -0.235000000    -2.929000000
H    -4.060000000     0.725000000    -2.420000000
C    -3.594000000    -2.580000000    -2.616000000
H    -3.564000000    -3.469000000    -1.991000000
O    -4.927000000    -0.095000000    -0.178000000
H    -2.913000000    -0.667000000    -0.299000000
C    -3.528000000    -2.115000000     2.461000000
C    -4.633000000    -1.042000000     2.709000000
H    -4.752000000    -0.987000000     3.794000000
H    -5.612000000    -1.226000000     2.262000000
C    -4.246000000     0.297000000     2.153000000
C    -3.720000000     1.266000000     3.020000000
H    -3.509000000     1.021000000     4.057000000
C    -4.489000000     0.699000000     0.844000000
C    -3.982000000     1.896000000     0.351000000
H    -4.164000000     2.240000000    -0.664000000
C    -3.362000000     2.814000000     1.218000000
O    -2.733000000     3.923000000     0.623000000
C    -1.302000000     3.855000000     0.395000000
C    -1.018000000     4.474000000    -0.989000000
C    -2.050000000     4.713000000    -1.860000000
H    -3.041000000     4.334000000    -1.624000000
C     0.307000000     4.736000000    -1.336000000
H     1.093000000     4.602000000    -0.597000000
O    -0.673000000     4.486000000     1.546000000
H    -1.017000000     2.797000000     0.493000000
C    -3.282000000     2.514000000     2.545000000
C    -2.448000000     3.404000000     3.466000000
H    -2.853000000     3.400000000     4.480000000
H    -2.575000000     4.472000000     3.278000000
C    -0.945000000     3.019000000     3.370000000
C    -0.086000000     3.756000000     2.506000000
C     1.290000000     3.528000000     2.510000000
H     1.938000000     3.879000000     1.711000000
C     1.797000000     2.649000000     3.419000000
O     3.148000000     2.322000000     3.407000000
C     3.365000000     1.182000000     2.587000000
H     2.461000000     0.928000000     2.014000000
C     4.577000000     1.415000000     1.651000000
C     5.347000000     0.315000000     1.235000000
H     5.100000000    -0.683000000     1.588000000
C     4.795000000     2.724000000     1.086000000
H     4.118000000     3.529000000     1.360000000
C     5.700000000     2.928000000     0.056000000
O     5.881000000     4.124000000    -0.523000000
C     6.569000000     1.878000000    -0.241000000
H     7.255000000     1.946000000    -1.081000000
C     6.440000000     0.588000000     0.364000000
O     7.229000000    -0.408000000    -0.091000000
C     6.835000000    -1.707000000    -0.126000000
C     5.825000000    -2.081000000    -1.017000000
H     5.288000000    -1.403000000    -1.675000000
C     7.296000000    -2.633000000     0.826000000
H     7.948000000    -2.254000000     1.609000000
C     6.833000000    -3.941000000     0.940000000
H     7.173000000    -4.752000000     1.578000000
C     5.822000000    -4.364000000     0.063000000
H     5.486000000    -5.397000000     0.033000000
C     5.329000000    -3.455000000    -0.864000000
O     4.392000000    -3.917000000    -1.825000000
C     3.193000000    -4.411000000    -1.499000000
C     2.445000000    -5.165000000    -2.448000000
H     2.829000000    -5.386000000    -3.440000000
C     1.132000000    -5.515000000    -2.209000000
O     0.479000000    -6.232000000    -3.167000000
C    -0.906000000    -6.168000000    -3.478000000
C    -1.586000000    -5.067000000    -3.996000000
H    -1.033000000    -4.186000000    -4.313000000
C    -1.651000000    -7.300000000    -3.170000000
H    -1.097000000    -8.135000000    -2.751000000
C    -3.021000000    -7.204000000    -3.193000000
H    -3.564000000    -8.071000000    -2.824000000
C    -3.694000000    -6.059000000    -3.586000000
H    -4.778000000    -5.988000000    -3.532000000
C    -2.934000000    -4.989000000    -4.000000000
O    -3.556000000    -3.905000000    -4.537000000
C    -3.598000000    -2.688000000    -3.971000000
C    -3.733000000    -1.602000000    -4.802000000
H    -3.780000000    -1.726000000    -5.881000000
C    -3.922000000    -0.318000000    -4.304000000
O    -4.071000000     0.781000000    -5.115000000
C    -4.380000000     2.037000000    -4.599000000
C    -3.373000000     2.950000000    -4.382000000
H    -2.331000000     2.749000000    -4.616000000
C    -5.685000000     2.429000000    -4.438000000
H    -6.427000000     1.657000000    -4.624000000
C    -6.052000000     3.715000000    -4.056000000
H    -7.085000000     3.955000000    -3.817000000
C    -5.044000000     4.671000000    -3.976000000
H    -5.271000000     5.700000000    -3.710000000
C    -3.698000000     4.272000000    -4.187000000
O    -2.727000000     5.234000000    -4.119000000
C    -1.755000000     5.127000000    -3.159000000
C    -0.458000000     5.430000000    -3.503000000
H    -0.259000000     5.994000000    -4.411000000
C     0.617000000     5.227000000    -2.585000000
O     1.902000000     5.559000000    -2.892000000
C     2.874000000     5.772000000    -1.910000000
C     2.688000000     6.807000000    -0.944000000
H     1.905000000     7.539000000    -1.122000000
C     3.580000000     7.033000000     0.041000000
H     3.448000000     7.865000000     0.728000000
C     4.604000000     6.074000000     0.251000000
H     5.334000000     6.270000000     1.032000000
C     4.812000000     5.028000000    -0.659000000
C     3.942000000     4.837000000    -1.695000000
H     4.073000000     4.031000000    -2.412000000
C     0.551000000     1.585000000    -2.566000000
H    -0.063000000     2.315000000    -3.087000000
C     0.016000000     1.066000000    -1.411000000
H    -0.970000000     1.393000000    -1.092000000
C     0.723000000     0.162000000    -0.608000000
C     0.082000000    -0.492000000     0.545000000
H    -0.309000000     0.270000000     1.222000000
H    -0.693000000    -1.099000000     0.072000000
H     0.792000000    -1.051000000     1.158000000
C     2.044000000    -0.176000000    -0.978000000
H     2.627000000    -0.832000000    -0.336000000
C     2.615000000     0.271000000    -2.120000000
H     3.597000000    -0.079000000    -2.425000000
C     1.804000000     1.086000000    -2.948000000
C     2.404000000     1.585000000    -4.194000000
O     3.570000000     1.140000000    -4.492000000
O     1.817000000     2.355000000    -4.923000000
O     5.606000000     4.709000000    -4.903000000
H     5.912000000     5.467000000    -4.406000000
H     5.903000000     3.954000000    -4.395000000
O    -0.406000000    -1.337000000    -6.320000000
H    -0.426000000    -1.721000000    -7.197000000
H     0.051000000    -1.987000000    -5.785000000
O     3.300000000    -0.551000000    -6.607000000
H     3.315000000     0.129000000    -5.934000000
H     2.525000000    -0.350000000    -7.133000000
O     5.918000000     1.608000000    -6.260000000
H     5.574000000     2.167000000    -6.957000000
H     5.256000000     1.651000000    -5.570000000
O     3.410000000     4.009000000    -6.339000000
H     2.793000000     3.513000000    -5.801000000
H     4.095000000     4.280000000    -5.728000000
O     5.967000000     0.405000000    -3.406000000
H     5.105000000     0.470000000    -3.818000000
H     6.173000000    -0.529000000    -3.430000000
O    -2.512000000    -0.266000000    -7.860000000
H    -3.031000000    -1.066000000    -7.940000000
H    -1.753000000    -0.524000000    -7.336000000
O     8.567000000     1.169000000    -6.284000000
H     7.646000000     1.399000000    -6.168000000
H     8.826000000     1.614000000    -7.091000000
O     4.856000000     2.932000000    -8.361000000
H     4.293000000     3.343000000    -7.705000000
H     4.368000000     2.160000000    -8.645000000
O     5.969000000    -1.194000000    -6.111000000
H     5.015000000    -1.219000000    -6.041000000
H     6.161000000    -0.324000000    -6.460000000
O    -0.081000000     3.719000000    -6.083000000
H     0.607000000     3.356000000    -5.526000000
H     0.363000000     3.934000000    -6.904000000
O     1.025000000     1.096000000    -7.181000000
H     0.382000000     0.465000000    -6.858000000
H     1.191000000     1.672000000    -6.435000000
O    -2.588000000     2.951000000    -7.692000000
H    -1.715000000     3.162000000    -7.360000000
H    -2.625000000     1.994000000    -7.676000000
O     1.323000000     3.835000000    -8.749000000
H     2.153000000     4.312000000    -8.744000000
H     1.561000000     2.936000000    -8.521000000
O     6.010000000    -0.329000000    -9.486000000
H     5.288000000    -0.436000000    -8.867000000
H     5.765000000     0.435000000   -10.010000000
O     1.966000000     6.880000000    -6.179000000
H     1.301000000     6.451000000    -6.717000000
H     2.284000000     6.191000000    -5.596000000
O     3.079000000     1.208000000    -9.409000000
H     2.662000000     0.374000000    -9.193000000
H     2.693000000     1.459000000   -10.248000000
O     1.324000000    -2.811000000    -4.654000000
H     1.643000000    -2.885000000    -3.754000000
H     1.989000000    -2.288000000    -5.101000000
O     7.497000000     2.727000000    -3.686000000
H     7.945000000     2.032000000    -4.167000000
H     6.903000000     2.266000000    -3.095000000
