218
-1441.22304
C     0.338000000    -4.792000000    -0.946000000
H    -0.709000000    -4.589000000    -0.735000000
C     1.307000000    -4.545000000     0.030000000
C     2.675000000    -4.645000000    -0.379000000
H     3.375000000    -4.202000000     0.325000000
C     0.917000000    -3.922000000     1.409000000
O    -0.111000000    -4.626000000     2.103000000
H     0.541000000    -2.940000000     1.085000000
O     2.070000000    -3.799000000     2.278000000
C     2.301000000    -2.576000000     2.842000000
C     3.223000000    -1.708000000     2.285000000
H     3.744000000    -2.080000000     1.406000000
C     3.443000000    -0.415000000     2.886000000
O     4.194000000     0.445000000     2.241000000
C     2.618000000    -0.053000000     3.994000000
C     2.789000000     1.336000000     4.600000000
H     2.377000000     1.356000000     5.611000000
C     2.019000000     2.432000000     3.893000000
C     0.740000000     2.662000000     4.278000000
H     0.302000000     2.177000000     5.146000000
H     3.833000000     1.652000000     4.647000000
C     1.711000000    -0.958000000     4.566000000
H     1.063000000    -0.648000000     5.381000000
C     1.541000000    -2.222000000     3.983000000
C     0.506000000    -3.195000000     4.545000000
H     0.214000000    -2.966000000     5.572000000
H     0.934000000    -4.188000000     4.389000000
C    -0.811000000    -3.153000000     3.823000000
C    -1.703000000    -2.132000000     4.176000000
H    -1.427000000    -1.401000000     4.931000000
C    -1.113000000    -3.876000000     2.677000000
C    -2.290000000    -3.776000000     1.956000000
H    -2.426000000    -4.523000000     1.178000000
C    -3.213000000    -2.808000000     2.405000000
O    -4.208000000    -2.508000000     1.589000000
C    -4.056000000    -1.417000000     0.596000000
C    -4.726000000    -1.741000000    -0.701000000
C    -5.211000000    -0.724000000    -1.535000000
H    -5.270000000     0.308000000    -1.197000000
C    -4.615000000    -3.057000000    -1.219000000
H    -4.287000000    -3.834000000    -0.532000000
O    -4.727000000    -0.236000000     1.092000000
H    -2.977000000    -1.308000000     0.413000000
C    -2.953000000    -2.061000000     3.526000000
C    -3.804000000    -0.902000000     3.860000000
H    -3.778000000    -0.604000000     4.911000000
H    -4.844000000    -1.219000000     3.750000000
C    -3.550000000     0.423000000     3.104000000
C    -2.778000000     1.467000000     3.722000000
H    -2.239000000     1.259000000     4.643000000
C    -3.906000000     0.665000000     1.758000000
C    -3.602000000     1.863000000     1.087000000
H    -3.846000000     2.096000000     0.053000000
C    -2.957000000     2.873000000     1.791000000
O    -2.577000000     4.060000000     1.204000000
C    -1.211000000     4.049000000     0.722000000
C    -1.173000000     4.376000000    -0.747000000
C    -2.087000000     3.880000000    -1.684000000
H    -2.959000000     3.288000000    -1.418000000
C    -0.139000000     5.164000000    -1.240000000
H     0.488000000     5.720000000    -0.548000000
O    -0.331000000     4.953000000     1.527000000
H    -0.663000000     3.104000000     0.854000000
C    -2.439000000     2.639000000     3.031000000
C    -1.574000000     3.601000000     3.789000000
H    -1.705000000     3.372000000     4.848000000
H    -2.039000000     4.584000000     3.688000000
C    -0.099000000     3.523000000     3.488000000
C     0.479000000     4.307000000     2.465000000
C     1.814000000     4.102000000     2.142000000
H     2.134000000     4.540000000     1.200000000
C     2.594000000     3.187000000     2.874000000
O     3.665000000     2.712000000     2.181000000
C     3.608000000     1.455000000     1.453000000
H     2.569000000     1.196000000     1.200000000
C     4.326000000     1.585000000     0.074000000
C     5.004000000     0.437000000    -0.409000000
H     4.867000000    -0.515000000     0.098000000
C     4.449000000     2.834000000    -0.615000000
H     4.084000000     3.707000000    -0.079000000
C     5.036000000     2.881000000    -1.918000000
O     5.174000000     4.047000000    -2.658000000
C     5.681000000     1.678000000    -2.320000000
H     6.134000000     1.605000000    -3.305000000
C     5.693000000     0.490000000    -1.599000000
O     6.335000000    -0.642000000    -2.095000000
C     6.243000000    -1.920000000    -1.493000000
C     5.512000000    -2.906000000    -2.098000000
H     5.102000000    -2.651000000    -3.073000000
C     6.892000000    -2.163000000    -0.297000000
H     7.499000000    -1.431000000     0.230000000
C     6.716000000    -3.376000000     0.228000000
H     7.302000000    -3.542000000     1.129000000
C     5.821000000    -4.330000000    -0.301000000
H     5.656000000    -5.316000000     0.127000000
C     5.264000000    -4.108000000    -1.533000000
O     4.350000000    -5.010000000    -2.064000000
C     3.009000000    -4.978000000    -1.654000000
C     2.006000000    -5.152000000    -2.560000000
H     2.346000000    -5.327000000    -3.578000000
C     0.715000000    -5.068000000    -2.240000000
O    -0.262000000    -5.252000000    -3.199000000
C    -1.478000000    -5.697000000    -2.929000000
C    -2.569000000    -4.868000000    -3.071000000
H    -2.371000000    -3.872000000    -3.459000000
C    -1.551000000    -7.003000000    -2.426000000
H    -0.702000000    -7.648000000    -2.218000000
C    -2.792000000    -7.553000000    -2.210000000
H    -2.856000000    -8.588000000    -1.882000000
C    -3.982000000    -6.775000000    -2.428000000
H    -4.976000000    -7.174000000    -2.246000000
C    -3.840000000    -5.440000000    -2.878000000
O    -4.998000000    -4.647000000    -2.973000000
C    -5.053000000    -3.359000000    -2.538000000
C    -5.597000000    -2.307000000    -3.290000000
H    -6.027000000    -2.621000000    -4.238000000
C    -5.632000000    -1.005000000    -2.827000000
O    -6.185000000    -0.018000000    -3.636000000
C    -5.904000000     1.330000000    -3.530000000
C    -4.556000000     1.700000000    -3.755000000
H    -3.821000000     0.930000000    -3.975000000
C    -6.830000000     2.366000000    -3.230000000
H    -7.887000000     2.134000000    -3.123000000
C    -6.355000000     3.668000000    -3.060000000
H    -6.958000000     4.463000000    -2.631000000
C    -5.080000000     3.998000000    -3.430000000
H    -4.730000000     5.022000000    -3.333000000
C    -4.133000000     3.045000000    -3.681000000
O    -2.776000000     3.416000000    -3.927000000
C    -1.939000000     4.057000000    -3.052000000
C    -0.966000000     4.861000000    -3.515000000
H    -0.842000000     5.067000000    -4.575000000
C    -0.095000000     5.469000000    -2.600000000
O     0.922000000     6.234000000    -3.139000000
C     2.229000000     6.264000000    -2.809000000
C     2.751000000     7.423000000    -2.257000000
H     2.011000000     8.196000000    -2.066000000
C     4.156000000     7.509000000    -1.921000000
H     4.562000000     8.355000000    -1.372000000
C     4.915000000     6.320000000    -2.118000000
H     5.977000000     6.316000000    -1.890000000
C     4.317000000     5.124000000    -2.509000000
C     2.993000000     5.096000000    -2.902000000
H     2.648000000     4.213000000    -3.435000000
C    -0.644000000    -0.232000000    -2.688000000
H    -1.402000000     0.006000000    -3.430000000
C    -0.986000000    -0.074000000    -1.328000000
H    -1.971000000     0.269000000    -1.023000000
C     0.000000000    -0.316000000    -0.365000000
C    -0.345000000    -0.258000000     1.101000000
H    -1.052000000     0.535000000     1.350000000
H    -0.729000000    -1.226000000     1.429000000
H     0.557000000    -0.105000000     1.697000000
C     1.263000000    -0.859000000    -0.707000000
H     1.944000000    -1.178000000     0.078000000
C     1.508000000    -1.161000000    -2.051000000
H     2.403000000    -1.727000000    -2.297000000
C     0.593000000    -0.742000000    -3.055000000
C     0.941000000    -0.961000000    -4.502000000
O     1.703000000    -1.885000000    -4.766000000
O     0.409000000    -0.366000000    -5.433000000
O    -3.342000000    -3.203000000    -6.429000000
H    -2.406000000    -3.403000000    -6.457000000
H    -3.386000000    -2.313000000    -6.080000000
O    -0.901000000    -4.084000000    -5.970000000
H    -0.013000000    -4.233000000    -6.295000000
H    -0.805000000    -4.052000000    -5.018000000
O     5.587000000    -5.458000000    -4.696000000
H     5.440000000    -4.525000000    -4.540000000
H     4.961000000    -5.898000000    -4.120000000
O     1.418000000     3.608000000    -7.309000000
H     1.088000000     4.469000000    -7.051000000
H     1.260000000     3.052000000    -6.547000000
O     5.082000000     2.747000000    -5.761000000
H     5.639000000     2.182000000    -6.297000000
H     4.278000000     2.243000000    -5.637000000
O    -1.925000000     2.392000000    -9.057000000
H    -2.076000000     3.329000000    -9.179000000
H    -1.745000000     2.298000000    -8.121000000
O     3.747000000    -3.160000000    -5.619000000
H     2.988000000    -2.783000000    -5.173000000
H     3.381000000    -3.855000000    -6.167000000
O     3.387000000     0.241000000    -5.921000000
H     2.746000000    -0.429000000    -5.683000000
H     4.206000000    -0.059000000    -5.527000000
O    -4.222000000    -0.422000000    -8.290000000
H    -3.591000000    -0.456000000    -7.571000000
H    -5.077000000    -0.457000000    -7.861000000
O     4.716000000    -3.353000000    -8.529000000
H     4.812000000    -2.681000000    -7.854000000
H     3.876000000    -3.158000000    -8.944000000
O     5.721000000    -0.483000000    -4.938000000
H     6.606000000    -0.749000000    -5.191000000
H     5.694000000    -0.613000000    -3.990000000
O    -2.162000000    -0.571000000    -6.579000000
H    -1.305000000    -0.977000000    -6.450000000
H    -2.009000000     0.363000000    -6.437000000
O    -1.851000000     2.256000000    -6.397000000
H    -0.990000000     2.320000000    -5.985000000
H    -2.417000000     2.808000000    -5.857000000
O     0.672000000     2.279000000    -4.941000000
H     0.639000000     1.346000000    -5.151000000
H     0.838000000     2.306000000    -3.998000000
O     1.124000000    -2.118000000    -7.348000000
H     1.060000000    -1.364000000    -6.761000000
H     0.998000000    -2.876000000    -6.778000000
O     1.805000000    -5.555000000    -6.341000000
H     1.147000000    -5.997000000    -6.877000000
H     2.268000000    -6.266000000    -5.896000000
O     2.368000000     0.638000000    -8.690000000
H     2.851000000     0.410000000    -7.895000000
H     1.546000000     0.153000000    -8.617000000
O    -2.031000000    -6.904000000    -6.541000000
H    -2.014000000    -6.063000000    -6.082000000
H    -1.853000000    -6.682000000    -7.454000000
O     1.904000000    -4.109000000    -9.172000000
H     1.682000000    -3.453000000    -8.511000000
H     1.562000000    -3.749000000    -9.991000000
