218
-1442.00925
C     0.202000000    -4.882000000    -0.710000000
H    -0.836000000    -4.568000000    -0.642000000
C     1.035000000    -4.533000000     0.386000000
C     2.409000000    -4.831000000     0.325000000
H     3.003000000    -4.490000000     1.169000000
C     0.343000000    -3.859000000     1.616000000
O    -1.019000000    -4.291000000     1.931000000
H     0.316000000    -2.792000000     1.351000000
O     1.116000000    -4.085000000     2.782000000
C     1.382000000    -2.952000000     3.466000000
C     2.556000000    -2.326000000     3.230000000
H     3.282000000    -2.932000000     2.694000000
C     2.866000000    -1.052000000     3.697000000
O     3.834000000    -0.313000000     3.161000000
C     1.910000000    -0.485000000     4.530000000
C     2.083000000     0.932000000     4.983000000
H     1.602000000     1.076000000     5.953000000
C     1.646000000     2.036000000     4.046000000
C     0.381000000     2.609000000     4.223000000
H    -0.275000000     2.152000000     4.960000000
H     3.137000000     1.072000000     5.230000000
C     0.738000000    -1.119000000     4.853000000
H     0.051000000    -0.693000000     5.580000000
C     0.404000000    -2.395000000     4.328000000
C    -0.967000000    -2.927000000     4.596000000
H    -1.432000000    -2.672000000     5.550000000
H    -0.882000000    -4.013000000     4.531000000
C    -1.956000000    -2.518000000     3.476000000
C    -2.948000000    -1.592000000     3.802000000
H    -2.898000000    -1.084000000     4.762000000
C    -1.986000000    -3.332000000     2.354000000
C    -2.905000000    -2.918000000     1.369000000
H    -2.861000000    -3.444000000     0.419000000
C    -3.833000000    -1.895000000     1.576000000
O    -4.611000000    -1.525000000     0.552000000
C    -4.274000000    -0.412000000    -0.262000000
C    -4.438000000    -0.641000000    -1.738000000
C    -4.907000000     0.396000000    -2.589000000
H    -5.137000000     1.323000000    -2.069000000
C    -4.019000000    -1.809000000    -2.291000000
H    -3.449000000    -2.469000000    -1.642000000
O    -4.930000000     0.756000000     0.249000000
H    -3.214000000    -0.178000000    -0.084000000
C    -3.915000000    -1.232000000     2.863000000
C    -4.771000000     0.053000000     3.041000000
H    -4.969000000     0.186000000     4.107000000
H    -5.766000000    -0.150000000     2.640000000
C    -4.102000000     1.234000000     2.439000000
C    -3.299000000     2.079000000     3.225000000
H    -3.110000000     1.886000000     4.278000000
C    -4.241000000     1.509000000     1.089000000
C    -3.672000000     2.652000000     0.547000000
H    -3.767000000     2.875000000    -0.512000000
C    -2.857000000     3.409000000     1.299000000
O    -2.233000000     4.520000000     0.741000000
C    -0.860000000     4.308000000     0.302000000
C    -0.681000000     4.896000000    -1.173000000
C    -1.796000000     4.978000000    -2.051000000
H    -2.790000000     4.789000000    -1.654000000
C     0.661000000     5.060000000    -1.636000000
H     1.495000000     4.875000000    -0.964000000
O     0.111000000     4.836000000     1.250000000
H    -0.663000000     3.231000000     0.193000000
C    -2.656000000     3.219000000     2.659000000
C    -1.712000000     4.009000000     3.554000000
H    -2.014000000     3.773000000     4.577000000
H    -1.842000000     5.090000000     3.471000000
C    -0.169000000     3.564000000     3.347000000
C     0.616000000     3.971000000     2.204000000
C     1.900000000     3.427000000     2.037000000
H     2.486000000     3.769000000     1.189000000
C     2.395000000     2.477000000     2.943000000
O     3.592000000     1.970000000     2.638000000
C     3.551000000     0.619000000     2.125000000
H     2.541000000     0.402000000     1.747000000
C     4.476000000     0.421000000     0.885000000
C     5.263000000    -0.772000000     0.678000000
H     5.226000000    -1.648000000     1.322000000
C     4.520000000     1.364000000    -0.092000000
H     3.931000000     2.276000000    -0.032000000
C     5.330000000     1.220000000    -1.234000000
O     5.379000000     2.174000000    -2.283000000
C     6.124000000     0.113000000    -1.480000000
H     6.796000000     0.263000000    -2.321000000
C     6.057000000    -0.884000000    -0.494000000
O     6.893000000    -1.960000000    -0.596000000
C     6.605000000    -3.205000000    -0.068000000
C     5.519000000    -3.906000000    -0.505000000
H     4.839000000    -3.511000000    -1.256000000
C     7.428000000    -3.773000000     0.886000000
H     8.243000000    -3.171000000     1.280000000
C     7.181000000    -5.077000000     1.329000000
H     7.766000000    -5.530000000     2.125000000
C     6.147000000    -5.827000000     0.781000000
H     5.847000000    -6.823000000     1.097000000
C     5.332000000    -5.205000000    -0.137000000
O     4.290000000    -5.845000000    -0.740000000
C     2.942000000    -5.540000000    -0.720000000
C     2.048000000    -6.012000000    -1.701000000
H     2.401000000    -6.723000000    -2.444000000
C     0.705000000    -5.714000000    -1.737000000
O    -0.170000000    -6.025000000    -2.760000000
C    -1.510000000    -5.742000000    -2.782000000
C    -1.959000000    -4.537000000    -3.382000000
H    -1.200000000    -3.953000000    -3.896000000
C    -2.475000000    -6.586000000    -2.175000000
H    -2.210000000    -7.562000000    -1.778000000
C    -3.830000000    -6.255000000    -2.181000000
H    -4.497000000    -6.961000000    -1.693000000
C    -4.306000000    -5.107000000    -2.846000000
H    -5.376000000    -4.949000000    -2.957000000
C    -3.315000000    -4.310000000    -3.447000000
O    -3.661000000    -3.123000000    -4.095000000
C    -4.006000000    -2.011000000    -3.602000000
C    -4.592000000    -1.070000000    -4.508000000
H    -4.617000000    -1.172000000    -5.590000000
C    -5.000000000     0.156000000    -3.898000000
O    -5.290000000     1.202000000    -4.718000000
C    -5.065000000     2.525000000    -4.398000000
C    -3.804000000     3.090000000    -4.448000000
H    -2.879000000     2.590000000    -4.724000000
C    -6.172000000     3.292000000    -4.091000000
H    -7.148000000     2.817000000    -4.161000000
C    -6.132000000     4.641000000    -3.831000000
H    -7.037000000     5.194000000    -3.595000000
C    -4.852000000     5.235000000    -3.947000000
H    -4.737000000     6.316000000    -3.950000000
C    -3.697000000     4.436000000    -4.173000000
O    -2.545000000     5.196000000    -4.421000000
C    -1.572000000     5.246000000    -3.429000000
C    -0.256000000     5.479000000    -3.838000000
H    -0.029000000     5.625000000    -4.891000000
C     0.839000000     5.392000000    -2.978000000
O     2.168000000     5.573000000    -3.462000000
C     3.344000000     5.192000000    -2.909000000
C     3.961000000     6.150000000    -2.087000000
H     3.533000000     7.137000000    -1.933000000
C     5.156000000     5.784000000    -1.375000000
H     5.474000000     6.512000000    -0.633000000
C     5.569000000     4.460000000    -1.410000000
H     6.415000000     4.182000000    -0.787000000
C     4.911000000     3.520000000    -2.227000000
C     3.882000000     3.916000000    -3.041000000
H     3.468000000     3.125000000    -3.661000000
C    -0.401000000    -0.917000000    -2.790000000
H    -0.919000000    -0.665000000    -3.711000000
C    -0.741000000    -0.180000000    -1.640000000
H    -1.478000000     0.614000000    -1.727000000
C     0.053000000    -0.281000000    -0.504000000
C    -0.202000000     0.630000000     0.669000000
H     0.511000000     1.455000000     0.614000000
H    -1.201000000     1.065000000     0.740000000
H    -0.026000000     0.009000000     1.550000000
C     1.001000000    -1.290000000    -0.482000000
H     1.536000000    -1.523000000     0.435000000
C     1.302000000    -2.035000000    -1.642000000
H     2.041000000    -2.810000000    -1.454000000
C     0.693000000    -1.797000000    -2.849000000
C     1.155000000    -2.471000000    -4.118000000
O     2.206000000    -3.189000000    -4.153000000
O     0.693000000    -2.175000000    -5.195000000
O    -2.583000000    -5.901000000    -8.008000000
H    -1.979000000    -5.176000000    -7.850000000
H    -3.408000000    -5.478000000    -8.245000000
O    -1.050000000    -3.510000000    -6.925000000
H    -0.967000000    -3.023000000    -7.745000000
H    -0.674000000    -2.930000000    -6.264000000
O     4.058000000     3.815000000    -6.335000000
H     3.221000000     4.020000000    -5.918000000
H     4.082000000     2.859000000    -6.367000000
O     4.518000000    -1.850000000    -3.569000000
H     3.698000000    -2.202000000    -3.917000000
H     4.246000000    -1.132000000    -2.998000000
O     1.002000000     1.704000000    -3.007000000
H     0.991000000     0.764000000    -2.825000000
H     0.745000000     2.111000000    -2.180000000
O     3.743000000    -5.351000000    -8.374000000
H     4.442000000    -4.758000000    -8.651000000
H     3.544000000    -5.083000000    -7.477000000
O     2.798000000    -1.785000000    -6.673000000
H     3.610000000    -1.989000000    -6.211000000
H     2.105000000    -2.065000000    -6.076000000
O     1.028000000    -6.707000000    -9.339000000
H     1.838000000    -6.224000000    -9.177000000
H     0.726000000    -6.391000000   -10.191000000
O     5.787000000    -0.853000000    -5.726000000
H     6.705000000    -1.074000000    -5.570000000
H     5.330000000    -1.163000000    -4.944000000
O     0.007000000     2.305000000    -5.671000000
H     0.246000000     1.523000000    -6.170000000
H     0.440000000     2.190000000    -4.825000000
O     0.696000000    -5.626000000    -6.502000000
H     0.259000000    -4.782000000    -6.388000000
H     0.359000000    -5.960000000    -7.333000000
O     0.456000000    -0.164000000    -6.731000000
H     0.526000000    -0.898000000    -6.121000000
H     0.319000000    -0.574000000    -7.585000000
O     5.705000000    -6.005000000    -5.815000000
H     6.244000000    -5.446000000    -6.374000000
H     4.916000000    -5.489000000    -5.648000000
O     5.799000000    -3.491000000    -7.484000000
H     5.970000000    -2.856000000    -6.788000000
H     5.369000000    -2.983000000    -8.172000000
O    -1.041000000    -1.935000000    -9.370000000
H    -1.924000000    -1.585000000    -9.489000000
H    -0.953000000    -2.598000000   -10.055000000
O     3.203000000    -4.990000000    -5.489000000
H     2.378000000    -5.449000000    -5.648000000
H     2.963000000    -4.257000000    -4.922000000
O     3.775000000     1.038000000    -6.570000000
H     4.443000000     0.391000000    -6.797000000
H     2.945000000     0.574000000    -6.681000000
O     1.072000000    -8.175000000    -5.077000000
H     0.482000000    -8.406000000    -4.359000000
H     0.805000000    -7.291000000    -5.331000000
O     3.942000000    -2.222000000    -9.321000000
H     3.531000000    -1.653000000    -9.973000000
H     3.408000000    -2.110000000    -8.535000000
