218
-1463.87693
C    -4.607000000    -1.275000000    -2.129000000
H    -3.894000000    -1.025000000    -2.911000000
C    -4.840000000    -0.358000000    -1.070000000
C    -5.500000000    -0.913000000     0.081000000
H    -5.506000000    -0.304000000     0.981000000
C    -4.121000000     1.022000000    -0.952000000
O    -3.937000000     1.607000000    -2.277000000
H    -3.130000000     0.826000000    -0.516000000
O    -4.769000000     1.859000000    -0.069000000
C    -3.962000000     2.614000000     0.767000000
C    -3.622000000     1.964000000     1.984000000
H    -4.187000000     1.106000000     2.341000000
C    -2.734000000     2.599000000     2.854000000
O    -2.344000000     1.942000000     3.947000000
C    -1.945000000     3.711000000     2.471000000
C    -0.932000000     4.313000000     3.360000000
H    -0.850000000     5.387000000     3.181000000
C     0.392000000     3.675000000     3.086000000
C     1.214000000     4.220000000     2.150000000
H     0.941000000     5.066000000     1.526000000
H    -1.174000000     4.148000000     4.412000000
C    -2.238000000     4.291000000     1.256000000
H    -1.532000000     5.061000000     0.954000000
C    -3.221000000     3.731000000     0.378000000
C    -3.282000000     4.305000000    -1.026000000
H    -2.963000000     5.346000000    -0.940000000
H    -4.325000000     4.422000000    -1.328000000
C    -2.380000000     3.493000000    -1.917000000
C    -1.145000000     4.089000000    -2.240000000
H    -0.849000000     5.080000000    -1.906000000
C    -2.744000000     2.324000000    -2.546000000
C    -1.957000000     1.683000000    -3.380000000
H    -2.337000000     0.778000000    -3.845000000
C    -0.812000000     2.242000000    -3.818000000
O    -0.021000000     1.515000000    -4.653000000
C     1.157000000     0.938000000    -4.059000000
C     1.389000000    -0.514000000    -4.433000000
C     2.698000000    -1.008000000    -4.556000000
H     3.599000000    -0.417000000    -4.409000000
C     0.289000000    -1.333000000    -4.659000000
H    -0.711000000    -0.940000000    -4.493000000
O     2.347000000     1.760000000    -4.200000000
H     0.917000000     0.806000000    -2.993000000
C    -0.435000000     3.505000000    -3.270000000
C     0.888000000     4.139000000    -3.607000000
H     0.918000000     5.218000000    -3.442000000
H     0.977000000     4.136000000    -4.696000000
C     2.013000000     3.497000000    -2.724000000
C     2.342000000     4.150000000    -1.514000000
H     1.784000000     5.004000000    -1.139000000
C     2.711000000     2.372000000    -3.075000000
C     3.671000000     1.869000000    -2.211000000
H     4.192000000     0.954000000    -2.483000000
C     3.890000000     2.385000000    -0.961000000
O     4.695000000     1.796000000    -0.027000000
C     4.059000000     1.018000000     1.013000000
C     4.644000000    -0.378000000     1.083000000
C     5.448000000    -0.864000000     0.080000000
H     5.763000000    -0.206000000    -0.726000000
C     4.290000000    -1.291000000     2.083000000
H     3.704000000    -0.835000000     2.877000000
O     3.985000000     1.680000000     2.241000000
H     3.001000000     0.904000000     0.733000000
C     3.187000000     3.565000000    -0.553000000
C     3.308000000     4.231000000     0.799000000
H     3.128000000     5.305000000     0.719000000
H     4.331000000     4.279000000     1.178000000
C     2.467000000     3.611000000     1.949000000
C     2.889000000     2.437000000     2.595000000
C     2.009000000     1.927000000     3.517000000
H     2.278000000     0.968000000     3.952000000
C     0.759000000     2.474000000     3.772000000
O    -0.032000000     1.729000000     4.569000000
C    -1.167000000     1.128000000     3.862000000
H    -0.930000000     0.857000000     2.823000000
C    -1.419000000    -0.286000000     4.547000000
C    -2.718000000    -0.761000000     4.749000000
H    -3.540000000    -0.170000000     4.352000000
C    -0.348000000    -0.972000000     5.075000000
H     0.657000000    -0.604000000     4.885000000
C    -0.509000000    -2.237000000     5.655000000
O     0.481000000    -3.033000000     5.969000000
C    -1.793000000    -2.713000000     5.830000000
H    -1.906000000    -3.736000000     6.182000000
C    -2.916000000    -1.994000000     5.453000000
O    -4.057000000    -2.769000000     5.301000000
C    -5.147000000    -2.332000000     4.535000000
C    -5.236000000    -2.598000000     3.135000000
H    -4.407000000    -3.058000000     2.603000000
C    -6.207000000    -1.651000000     5.126000000
H    -6.123000000    -1.239000000     6.128000000
C    -7.328000000    -1.267000000     4.414000000
H    -8.158000000    -0.816000000     4.950000000
C    -7.454000000    -1.606000000     3.076000000
H    -8.323000000    -1.377000000     2.464000000
C    -6.426000000    -2.284000000     2.412000000
O    -6.653000000    -2.774000000     1.156000000
C    -6.060000000    -2.190000000     0.052000000
C    -5.778000000    -3.019000000    -1.015000000
H    -6.114000000    -4.052000000    -1.046000000
C    -5.135000000    -2.542000000    -2.107000000
O    -4.822000000    -3.394000000    -3.164000000
C    -4.011000000    -3.096000000    -4.257000000
C    -2.662000000    -3.507000000    -4.219000000
H    -2.243000000    -4.056000000    -3.379000000
C    -4.454000000    -2.258000000    -5.289000000
H    -5.505000000    -1.993000000    -5.374000000
C    -3.653000000    -1.869000000    -6.359000000
H    -4.064000000    -1.358000000    -7.226000000
C    -2.362000000    -2.360000000    -6.358000000
H    -1.806000000    -2.324000000    -7.291000000
C    -1.870000000    -3.078000000    -5.242000000
O    -0.532000000    -3.491000000    -5.296000000
C     0.506000000    -2.631000000    -5.054000000
C     1.804000000    -3.122000000    -5.185000000
H     1.968000000    -4.125000000    -5.572000000
C     2.924000000    -2.314000000    -4.998000000
O     4.161000000    -2.858000000    -5.245000000
C     5.280000000    -2.400000000    -4.483000000
C     5.313000000    -2.678000000    -3.076000000
H     4.502000000    -3.049000000    -2.455000000
C     6.394000000    -1.875000000    -5.104000000
H     6.432000000    -1.608000000    -6.157000000
C     7.525000000    -1.627000000    -4.421000000
H     8.370000000    -1.157000000    -4.918000000
C     7.629000000    -2.020000000    -3.043000000
H     8.626000000    -1.971000000    -2.612000000
C     6.504000000    -2.479000000    -2.338000000
O     6.609000000    -2.735000000    -1.005000000
C     5.854000000    -2.236000000     0.028000000
C     5.471000000    -3.115000000     1.005000000
H     5.882000000    -4.119000000     0.939000000
C     4.705000000    -2.607000000     2.065000000
O     4.263000000    -3.498000000     3.037000000
C     3.696000000    -2.994000000     4.192000000
C     4.429000000    -2.035000000     4.940000000
H     5.489000000    -1.843000000     4.796000000
C     3.836000000    -1.433000000     6.044000000
H     4.431000000    -0.696000000     6.576000000
C     2.515000000    -1.782000000     6.404000000
H     2.132000000    -1.224000000     7.254000000
C     1.833000000    -2.789000000     5.645000000
C     2.448000000    -3.368000000     4.560000000
H     1.939000000    -4.105000000     3.945000000
C    -0.340000000    -2.433000000     1.905000000
H     0.053000000    -2.832000000     2.837000000
C    -0.001000000    -1.176000000     1.486000000
H     0.738000000    -0.618000000     2.055000000
C    -0.539000000    -0.623000000     0.327000000
C    -0.141000000     0.715000000    -0.099000000
H     0.737000000     1.044000000     0.459000000
H     0.218000000     0.711000000    -1.130000000
H    -0.979000000     1.413000000    -0.030000000
C    -1.523000000    -1.344000000    -0.387000000
H    -1.965000000    -0.975000000    -1.308000000
C    -1.928000000    -2.543000000     0.141000000
H    -2.722000000    -3.074000000    -0.378000000
C    -1.353000000    -3.114000000     1.290000000
C    -1.785000000    -4.472000000     1.702000000
O    -2.544000000    -5.120000000     0.961000000
O    -1.400000000    -5.069000000     2.717000000
O     2.776000000    -8.518000000     1.063000000
H     2.027000000    -8.105000000     0.633000000
H     3.293000000    -7.785000000     1.399000000
O    -4.889000000    -6.571000000     0.928000000
H    -4.667000000    -7.270000000     0.313000000
H    -4.090000000    -6.049000000     0.998000000
O    -0.253000000    -9.149000000     4.541000000
H    -0.484000000    -8.225000000     4.641000000
H     0.560000000    -9.246000000     5.037000000
O    -7.168000000    -4.993000000     4.745000000
H    -7.511000000    -5.780000000     4.322000000
H    -6.221000000    -5.048000000     4.621000000
O    -1.815000000    -7.700000000     2.128000000
H    -1.204000000    -7.962000000     2.817000000
H    -1.793000000    -6.743000000     2.141000000
O    -4.160000000    -5.783000000     3.756000000
H    -3.248000000    -5.535000000     3.603000000
H    -4.602000000    -5.589000000     2.930000000
O     0.070000000    -7.619000000    -0.122000000
H    -0.529000000    -7.236000000    -0.763000000
H    -0.432000000    -7.640000000     0.693000000
O     1.863000000    -8.086000000    -1.947000000
H     1.817000000    -9.011000000    -1.707000000
H     1.212000000    -7.660000000    -1.389000000
O     3.002000000    -5.465000000    -1.609000000
H     2.843000000    -6.141000000    -2.267000000
H     2.284000000    -4.843000000    -1.726000000
O    -4.253000000    -7.879000000    -1.351000000
H    -3.698000000    -8.655000000    -1.276000000
H    -4.888000000    -8.103000000    -2.031000000
O    -1.673000000    -5.995000000    -1.550000000
H    -1.926000000    -5.467000000    -0.793000000
H    -2.503000000    -6.305000000    -1.914000000
O    -1.006000000    -6.012000000     5.340000000
H    -1.142000000    -5.534000000     4.522000000
H    -1.855000000    -6.412000000     5.527000000
O     0.957000000    -6.409000000     2.841000000
H     0.127000000    -5.955000000     2.692000000
H     1.567000000    -6.001000000     2.226000000
O    -3.531000000    -6.903000000     6.239000000
H    -3.971000000    -6.455000000     5.517000000
H    -4.243000000    -7.264000000     6.767000000
O    -2.985000000    -9.939000000     1.342000000
H    -2.519000000    -9.247000000     1.811000000
H    -2.526000000   -10.012000000     0.505000000
O     1.660000000    -3.040000000    -0.417000000
H     1.167000000    -3.140000000    -1.231000000
H     1.179000000    -2.373000000     0.074000000
O    -4.829000000    -8.748000000     4.573000000
H    -4.926000000    -7.970000000     4.025000000
H    -3.941000000    -8.685000000     4.925000000
O     2.693000000    -7.533000000     4.719000000
H     3.235000000    -6.826000000     5.069000000
H     2.164000000    -7.114000000     4.040000000
O     0.406000000    -4.515000000    -2.426000000
H     0.435000000    -4.877000000    -3.311000000
H    -0.290000000    -5.006000000    -1.989000000
