218
-1483.21841
C     2.239000000    -4.693000000     0.810000000
H     1.429000000    -5.328000000     1.160000000
C     2.557000000    -3.499000000     1.490000000
C     3.631000000    -2.768000000     1.076000000
H     3.940000000    -1.846000000     1.562000000
C     1.568000000    -2.876000000     2.480000000
O     0.650000000    -3.826000000     2.998000000
H     0.936000000    -2.174000000     1.917000000
O     2.330000000    -2.176000000     3.567000000
C     1.836000000    -0.961000000     4.035000000
C     2.568000000     0.187000000     3.688000000
H     3.536000000     0.037000000     3.218000000
C     2.105000000     1.459000000     3.997000000
O     2.864000000     2.530000000     3.634000000
C     0.890000000     1.579000000     4.626000000
C     0.358000000     2.956000000     4.909000000
H    -0.285000000     2.969000000     5.792000000
C    -0.428000000     3.344000000     3.677000000
C    -1.823000000     3.190000000     3.565000000
H    -2.341000000     2.734000000     4.405000000
H     1.080000000     3.772000000     4.979000000
C     0.175000000     0.450000000     4.998000000
H    -0.817000000     0.597000000     5.419000000
C     0.557000000    -0.824000000     4.610000000
C    -0.266000000    -2.060000000     5.090000000
H    -0.826000000    -1.840000000     6.001000000
H     0.386000000    -2.916000000     5.272000000
C    -1.159000000    -2.588000000     3.964000000
C    -2.447000000    -2.080000000     3.858000000
H    -2.811000000    -1.325000000     4.550000000
C    -0.640000000    -3.470000000     2.955000000
C    -1.470000000    -3.743000000     1.865000000
H    -1.015000000    -4.323000000     1.066000000
C    -2.762000000    -3.314000000     1.822000000
O    -3.411000000    -3.612000000     0.696000000
C    -3.416000000    -2.645000000    -0.379000000
C    -3.248000000    -3.284000000    -1.726000000
C    -3.645000000    -2.622000000    -2.898000000
H    -4.224000000    -1.719000000    -2.720000000
C    -2.416000000    -4.407000000    -1.940000000
H    -2.016000000    -4.894000000    -1.054000000
O    -4.616000000    -1.906000000    -0.288000000
H    -2.542000000    -2.018000000    -0.147000000
C    -3.276000000    -2.390000000     2.768000000
C    -4.627000000    -1.754000000     2.657000000
H    -4.993000000    -1.371000000     3.612000000
H    -5.287000000    -2.581000000     2.387000000
C    -4.508000000    -0.506000000     1.701000000
C    -4.396000000     0.807000000     2.361000000
H    -4.375000000     0.944000000     3.439000000
C    -4.608000000    -0.660000000     0.329000000
C    -4.719000000     0.481000000    -0.417000000
H    -4.861000000     0.431000000    -1.493000000
C    -4.477000000     1.683000000     0.215000000
O    -4.146000000     2.719000000    -0.631000000
C    -2.735000000     3.081000000    -0.685000000
C    -2.261000000     3.275000000    -2.095000000
C    -2.951000000     2.788000000    -3.240000000
H    -3.953000000     2.447000000    -2.992000000
C    -0.969000000     3.850000000    -2.344000000
H    -0.397000000     4.315000000    -1.545000000
O    -2.427000000     4.241000000     0.087000000
H    -2.249000000     2.186000000    -0.268000000
C    -4.339000000     1.900000000     1.595000000
C    -4.109000000     3.200000000     2.312000000
H    -4.658000000     3.188000000     3.255000000
H    -4.635000000     3.995000000     1.780000000
C    -2.576000000     3.464000000     2.396000000
C    -1.839000000     3.936000000     1.270000000
C    -0.481000000     4.074000000     1.323000000
H     0.087000000     4.411000000     0.460000000
C     0.174000000     3.778000000     2.511000000
O     1.549000000     4.099000000     2.421000000
C     2.499000000     3.008000000     2.269000000
H     2.073000000     2.157000000     1.719000000
C     3.677000000     3.396000000     1.455000000
C     4.828000000     2.582000000     1.426000000
H     4.874000000     1.690000000     2.046000000
C     3.670000000     4.561000000     0.689000000
H     2.809000000     5.225000000     0.694000000
C     4.604000000     4.774000000    -0.294000000
O     4.491000000     5.893000000    -1.178000000
C     5.789000000     4.057000000    -0.367000000
H     6.383000000     4.229000000    -1.261000000
C     5.848000000     2.871000000     0.468000000
O     7.010000000     2.087000000     0.366000000
C     7.046000000     0.725000000     0.540000000
C     6.122000000    -0.105000000    -0.157000000
H     5.457000000     0.233000000    -0.948000000
C     7.899000000     0.164000000     1.496000000
H     8.716000000     0.754000000     1.904000000
C     7.841000000    -1.215000000     1.717000000
H     8.602000000    -1.636000000     2.369000000
C     7.081000000    -2.040000000     0.984000000
H     7.156000000    -3.115000000     1.129000000
C     6.190000000    -1.489000000     0.050000000
O     5.415000000    -2.366000000    -0.635000000
C     4.368000000    -3.185000000    -0.062000000
C     4.030000000    -4.340000000    -0.716000000
H     4.686000000    -4.649000000    -1.526000000
C     2.986000000    -5.137000000    -0.282000000
O     2.886000000    -6.387000000    -0.852000000
C     1.628000000    -6.770000000    -1.186000000
C     0.903000000    -6.216000000    -2.240000000
H     1.288000000    -5.420000000    -2.872000000
C     1.112000000    -7.905000000    -0.561000000
H     1.698000000    -8.436000000     0.185000000
C    -0.155000000    -8.463000000    -0.968000000
H    -0.464000000    -9.392000000    -0.497000000
C    -0.950000000    -7.783000000    -1.875000000
H    -1.953000000    -8.082000000    -2.168000000
C    -0.419000000    -6.655000000    -2.464000000
O    -1.184000000    -5.945000000    -3.432000000
C    -2.103000000    -4.922000000    -3.224000000
C    -2.561000000    -4.247000000    -4.401000000
H    -2.295000000    -4.503000000    -5.424000000
C    -3.338000000    -3.124000000    -4.159000000
O    -3.664000000    -2.375000000    -5.305000000
C    -4.184000000    -1.102000000    -5.407000000
C    -3.369000000     0.035000000    -5.443000000
H    -2.296000000    -0.137000000    -5.451000000
C    -5.549000000    -1.005000000    -5.138000000
H    -6.084000000    -1.892000000    -4.809000000
C    -6.115000000     0.247000000    -5.041000000
H    -7.156000000     0.367000000    -4.748000000
C    -5.355000000     1.349000000    -5.281000000
H    -5.857000000     2.304000000    -5.155000000
C    -3.949000000     1.292000000    -5.427000000
O    -3.230000000     2.415000000    -5.630000000
C    -2.400000000     2.854000000    -4.556000000
C    -1.117000000     3.360000000    -4.760000000
H    -0.782000000     3.335000000    -5.794000000
C    -0.476000000     3.836000000    -3.648000000
O     0.775000000     4.444000000    -3.882000000
C     1.492000000     5.365000000    -3.131000000
C     0.920000000     6.632000000    -2.996000000
H     0.073000000     6.793000000    -3.659000000
C     1.598000000     7.637000000    -2.271000000
H     1.064000000     8.578000000    -2.173000000
C     2.878000000     7.373000000    -1.809000000
H     3.497000000     8.032000000    -1.207000000
C     3.426000000     6.104000000    -2.008000000
C     2.682000000     5.086000000    -2.489000000
H     3.013000000     4.059000000    -2.363000000
C    -0.788000000    -0.744000000    -2.531000000
H    -1.433000000    -0.500000000    -3.372000000
C    -1.186000000    -0.264000000    -1.289000000
H    -2.136000000     0.258000000    -1.219000000
C    -0.404000000    -0.373000000    -0.123000000
C    -0.906000000     0.170000000     1.211000000
H    -1.226000000     1.209000000     1.111000000
H    -1.752000000    -0.403000000     1.597000000
H    -0.104000000     0.100000000     1.950000000
C     0.850000000    -1.031000000    -0.273000000
H     1.643000000    -1.102000000     0.468000000
C     1.228000000    -1.510000000    -1.527000000
H     2.209000000    -1.977000000    -1.579000000
C     0.441000000    -1.352000000    -2.672000000
C     0.891000000    -1.834000000    -4.001000000
O     1.997000000    -2.313000000    -4.163000000
O     0.170000000    -1.755000000    -5.024000000
O     3.736000000     1.514000000    -6.435000000
H     4.453000000     2.108000000    -6.213000000
H     3.202000000     2.006000000    -7.059000000
O     3.268000000    -1.711000000    -6.407000000
H     3.121000000    -0.777000000    -6.559000000
H     2.728000000    -1.917000000    -5.644000000
O    -0.071000000     0.610000000    -6.189000000
H     0.642000000     0.512000000    -6.819000000
H    -0.053000000    -0.200000000    -5.679000000
O     2.612000000    -4.429000000    -8.186000000
H     2.208000000    -3.600000000    -7.929000000
H     2.484000000    -5.002000000    -7.430000000
O    -2.021000000     0.368000000    -8.169000000
H    -1.545000000     0.618000000    -8.961000000
H    -1.381000000     0.470000000    -7.464000000
O     1.853000000    -5.363000000    -5.695000000
H     2.415000000    -4.877000000    -5.092000000
H     1.036000000    -4.866000000    -5.715000000
O    -3.047000000    -2.528000000    -8.911000000
H    -3.678000000    -2.649000000    -8.202000000
H    -2.535000000    -1.763000000    -8.649000000
O     0.083000000    -2.713000000    -7.392000000
H     0.482000000    -1.934000000    -7.779000000
H    -0.094000000    -2.466000000    -6.485000000
O     2.242000000     1.415000000    -4.216000000
H     2.691000000     1.659000000    -5.026000000
H     1.319000000     1.358000000    -4.461000000
O     4.769000000    -7.220000000    -3.742000000
H     5.380000000    -6.571000000    -4.091000000
H     3.943000000    -6.745000000    -3.646000000
O     2.394000000     1.469000000    -1.416000000
H     1.878000000     0.679000000    -1.255000000
H     2.298000000     1.632000000    -2.354000000
O     4.220000000    -0.550000000    -3.145000000
H     3.866000000     0.309000000    -2.912000000
H     3.480000000    -1.015000000    -3.536000000
O     3.764000000    -4.194000000    -4.040000000
H     3.228000000    -3.403000000    -3.992000000
H     4.366000000    -4.031000000    -4.766000000
O     1.136000000    -0.450000000    -8.555000000
H     2.036000000    -0.688000000    -8.776000000
H     0.760000000    -0.141000000    -9.379000000
O    -0.580000000    -4.306000000    -9.438000000
H    -0.040000000    -3.933000000    -8.740000000
H    -1.234000000    -3.632000000    -9.621000000
O     6.207000000     1.404000000    -4.323000000
H     5.374000000     0.940000000    -4.234000000
H     5.962000000     2.328000000    -4.377000000
O     6.431000000    -1.908000000    -3.928000000
H     6.486000000    -1.514000000    -4.799000000
H     5.571000000    -1.644000000    -3.601000000
O     5.153000000    -3.581000000    -6.443000000
H     4.784000000    -4.267000000    -6.999000000
H     4.719000000    -2.779000000    -6.732000000
O     0.968000000    -8.066000000    -5.031000000
H     1.126000000    -7.131000000    -5.160000000
H     0.015000000    -8.153000000    -5.052000000
