218
-1455.05630
C     1.182000000    -5.507000000     0.375000000
H     0.215000000    -5.916000000     0.657000000
C     1.702000000    -4.462000000     1.077000000
C     2.949000000    -3.956000000     0.716000000
H     3.190000000    -2.990000000     1.152000000
C     0.796000000    -3.728000000     2.103000000
O    -0.257000000    -4.527000000     2.616000000
H     0.412000000    -2.855000000     1.554000000
O     1.549000000    -3.212000000     3.195000000
C     1.422000000    -1.882000000     3.680000000
C     2.380000000    -0.947000000     3.455000000
H     3.372000000    -1.155000000     3.062000000
C     2.210000000     0.411000000     3.929000000
O     3.146000000     1.380000000     3.685000000
C     1.023000000     0.714000000     4.641000000
C     0.752000000     2.105000000     5.162000000
H     0.190000000     2.102000000     6.098000000
C     0.124000000     3.000000000     4.052000000
C    -1.260000000     2.939000000     3.800000000
H    -1.799000000     2.389000000     4.568000000
H     1.702000000     2.581000000     5.414000000
C     0.054000000    -0.340000000     4.867000000
H    -0.891000000    -0.188000000     5.382000000
C     0.265000000    -1.620000000     4.432000000
C    -0.732000000    -2.741000000     4.719000000
H    -1.155000000    -2.611000000     5.717000000
H    -0.243000000    -3.708000000     4.856000000
C    -1.772000000    -2.896000000     3.663000000
C    -2.885000000    -2.143000000     3.549000000
H    -3.060000000    -1.398000000     4.321000000
C    -1.468000000    -3.850000000     2.645000000
C    -2.380000000    -4.006000000     1.559000000
H    -2.046000000    -4.649000000     0.749000000
C    -3.480000000    -3.157000000     1.401000000
O    -4.116000000    -3.154000000     0.164000000
C    -3.861000000    -1.976000000    -0.550000000
C    -3.611000000    -2.208000000    -1.991000000
C    -4.056000000    -1.433000000    -3.024000000
H    -4.620000000    -0.519000000    -2.858000000
C    -2.728000000    -3.307000000    -2.276000000
H    -2.274000000    -3.913000000    -1.496000000
O    -4.964000000    -0.948000000    -0.497000000
H    -2.948000000    -1.468000000    -0.208000000
C    -3.740000000    -2.189000000     2.414000000
C    -4.953000000    -1.276000000     2.369000000
H    -5.179000000    -0.868000000     3.356000000
H    -5.798000000    -1.724000000     1.842000000
C    -4.592000000    -0.008000000     1.637000000
C    -4.278000000     1.170000000     2.401000000
H    -4.390000000     1.153000000     3.482000000
C    -4.600000000     0.122000000     0.242000000
C    -4.121000000     1.287000000    -0.364000000
H    -4.221000000     1.312000000    -1.447000000
C    -3.735000000     2.361000000     0.397000000
O    -3.253000000     3.414000000    -0.313000000
C    -1.879000000     3.634000000    -0.353000000
C    -1.365000000     3.908000000    -1.745000000
C    -2.092000000     3.559000000    -2.888000000
H    -3.045000000     3.039000000    -2.841000000
C    -0.081000000     4.551000000    -1.893000000
H     0.456000000     4.999000000    -1.061000000
O    -1.425000000     4.651000000     0.598000000
H    -1.435000000     2.638000000    -0.206000000
C    -3.805000000     2.294000000     1.789000000
C    -3.328000000     3.470000000     2.653000000
H    -3.785000000     3.405000000     3.643000000
H    -3.685000000     4.453000000     2.341000000
C    -1.816000000     3.603000000     2.736000000
C    -0.971000000     4.253000000     1.871000000
C     0.376000000     4.450000000     2.153000000
H     0.882000000     5.126000000     1.469000000
C     0.978000000     3.771000000     3.203000000
O     2.358000000     3.525000000     3.178000000
C     2.799000000     2.297000000     2.580000000
H     1.915000000     1.877000000     2.078000000
C     3.949000000     2.371000000     1.569000000
C     4.600000000     1.240000000     1.069000000
H     4.329000000     0.266000000     1.468000000
C     4.232000000     3.617000000     1.109000000
H     3.658000000     4.477000000     1.444000000
C     5.256000000     3.812000000     0.159000000
O     5.499000000     5.034000000    -0.356000000
C     5.985000000     2.705000000    -0.315000000
H     6.789000000     2.814000000    -1.038000000
C     5.660000000     1.456000000     0.172000000
O     6.390000000     0.407000000    -0.309000000
C     6.424000000    -0.805000000     0.252000000
C     5.590000000    -1.767000000    -0.340000000
H     5.030000000    -1.477000000    -1.226000000
C     7.452000000    -1.178000000     1.092000000
H     8.051000000    -0.428000000     1.602000000
C     7.577000000    -2.521000000     1.446000000
H     8.387000000    -2.841000000     2.097000000
C     6.683000000    -3.475000000     0.930000000
H     6.690000000    -4.513000000     1.255000000
C     5.715000000    -3.097000000    -0.007000000
O     5.021000000    -4.096000000    -0.617000000
C     3.812000000    -4.665000000    -0.179000000
C     3.277000000    -5.708000000    -0.852000000
H     3.919000000    -6.184000000    -1.589000000
C     1.999000000    -6.193000000    -0.559000000
O     1.467000000    -7.191000000    -1.267000000
C     0.246000000    -7.083000000    -1.983000000
C     0.042000000    -5.966000000    -2.805000000
H     0.845000000    -5.250000000    -2.961000000
C    -0.801000000    -7.938000000    -1.727000000
H    -0.635000000    -8.844000000    -1.148000000
C    -2.109000000    -7.626000000    -2.144000000
H    -2.890000000    -8.357000000    -1.954000000
C    -2.353000000    -6.467000000    -2.851000000
H    -3.321000000    -6.221000000    -3.279000000
C    -1.274000000    -5.641000000    -3.220000000
O    -1.462000000    -4.518000000    -3.950000000
C    -2.453000000    -3.620000000    -3.623000000
C    -2.960000000    -2.880000000    -4.609000000
H    -2.691000000    -2.994000000    -5.656000000
C    -3.758000000    -1.777000000    -4.392000000
O    -4.166000000    -0.995000000    -5.422000000
C    -4.184000000     0.370000000    -5.234000000
C    -3.064000000     1.172000000    -5.436000000
H    -2.065000000     0.743000000    -5.414000000
C    -5.411000000     0.884000000    -5.101000000
H    -6.228000000     0.172000000    -5.016000000
C    -5.601000000     2.315000000    -4.953000000
H    -6.568000000     2.771000000    -4.755000000
C    -4.497000000     3.163000000    -5.136000000
H    -4.595000000     4.225000000    -4.926000000
C    -3.233000000     2.607000000    -5.331000000
O    -2.187000000     3.407000000    -5.322000000
C    -1.541000000     3.804000000    -4.175000000
C    -0.304000000     4.393000000    -4.316000000
H     0.173000000     4.594000000    -5.272000000
C     0.427000000     4.774000000    -3.183000000
O     1.749000000     5.256000000    -3.395000000
C     2.501000000     5.866000000    -2.394000000
C     2.275000000     7.218000000    -2.052000000
H     1.598000000     7.825000000    -2.647000000
C     3.049000000     7.745000000    -0.960000000
H     3.061000000     8.817000000    -0.779000000
C     4.080000000     6.999000000    -0.412000000
H     4.782000000     7.437000000     0.292000000
C     4.408000000     5.733000000    -0.854000000
C     3.579000000     5.153000000    -1.838000000
H     3.861000000     4.161000000    -2.182000000
C    -0.351000000    -0.287000000    -2.796000000
H    -0.936000000    -0.071000000    -3.686000000
C    -0.868000000     0.028000000    -1.595000000
H    -1.844000000     0.490000000    -1.469000000
C    -0.169000000    -0.325000000    -0.434000000
C    -0.620000000     0.017000000     1.003000000
H    -1.624000000    -0.338000000     1.246000000
H     0.081000000    -0.542000000     1.626000000
H    -0.368000000     1.028000000     1.329000000
C     1.080000000    -1.005000000    -0.476000000
H     1.621000000    -1.168000000     0.453000000
C     1.590000000    -1.296000000    -1.705000000
H     2.549000000    -1.808000000    -1.696000000
C     0.877000000    -1.014000000    -2.878000000
C     1.419000000    -1.456000000    -4.210000000
O     2.381000000    -2.267000000    -4.224000000
O     0.718000000    -1.506000000    -5.224000000
O     6.663000000    -2.271000000    -5.549000000
H     6.526000000    -2.688000000    -6.399000000
H     6.752000000    -3.000000000    -4.935000000
O     3.204000000     1.490000000    -5.322000000
H     3.558000000     0.601000000    -5.300000000
H     3.616000000     1.931000000    -4.578000000
O     1.928000000    -2.099000000    -7.547000000
H     2.820000000    -2.040000000    -7.202000000
H     1.368000000    -2.028000000    -6.774000000
O     4.437000000    -0.851000000    -4.854000000
H     3.651000000    -1.365000000    -4.669000000
H     5.142000000    -1.497000000    -4.897000000
O    -0.881000000    -0.019000000    -8.608000000
H    -0.930000000    -0.953000000    -8.405000000
H    -0.269000000     0.334000000    -7.962000000
O     2.510000000    -4.683000000    -5.174000000
H     2.597000000    -3.814000000    -4.782000000
H     1.599000000    -4.726000000    -5.463000000
O     2.155000000     2.870000000    -7.445000000
H     2.142000000     2.264000000    -8.186000000
H     2.700000000     2.435000000    -6.789000000
O     1.203000000    -1.778000000   -10.572000000
H     2.020000000    -1.913000000   -11.054000000
H     1.448000000    -1.882000000    -9.653000000
O     5.195000000     3.424000000    -4.016000000
H     5.553000000     2.579000000    -3.745000000
H     5.912000000     4.044000000    -3.879000000
O     0.649000000     0.718000000    -6.558000000
H     0.751000000    -0.020000000    -5.957000000
H     1.195000000     1.409000000    -6.183000000
O     0.034000000    -3.954000000    -5.931000000
H    -0.594000000    -4.257000000    -5.275000000
H     0.199000000    -3.040000000    -5.700000000
O     2.668000000     1.430000000    -9.950000000
H     2.059000000     0.699000000    -9.846000000
H     2.776000000     1.519000000   -10.896000000
O     4.624000000    -3.721000000    -6.862000000
H     5.366000000    -4.324000000    -6.894000000
H     3.878000000    -4.272000000    -6.625000000
O    -1.243000000    -2.946000000    -8.225000000
H    -2.151000000    -2.903000000    -7.927000000
H    -0.770000000    -3.346000000    -7.495000000
O     1.852000000    -4.317000000    -8.858000000
H     1.739000000    -3.516000000    -8.348000000
H     1.406000000    -4.992000000    -8.347000000
O     7.717000000     0.226000000    -5.657000000
H     7.042000000     0.557000000    -5.065000000
H     7.493000000    -0.696000000    -5.785000000
O     6.404000000    -4.179000000    -3.493000000
H     6.718000000    -5.081000000    -3.434000000
H     5.941000000    -4.032000000    -2.667000000
O     6.056000000     1.051000000    -3.685000000
H     6.662000000     0.679000000    -3.044000000
H     5.281000000     0.491000000    -3.635000000
O     3.622000000    -7.321000000    -5.572000000
H     3.320000000    -8.101000000    -5.106000000
H     2.921000000    -6.681000000    -5.449000000
