218
-1455.53472
C     1.687000000    -4.630000000     0.533000000
H     0.688000000    -5.043000000     0.654000000
C     2.198000000    -3.597000000     1.284000000
C     3.505000000    -3.132000000     1.045000000
H     3.829000000    -2.206000000     1.514000000
C     1.280000000    -2.957000000     2.403000000
O     0.240000000    -3.807000000     2.978000000
H     0.805000000    -2.119000000     1.872000000
O     2.136000000    -2.494000000     3.522000000
C     1.853000000    -1.226000000     3.915000000
C     2.751000000    -0.253000000     3.591000000
H     3.596000000    -0.596000000     2.999000000
C     2.363000000     1.117000000     3.665000000
O     3.168000000     2.016000000     3.023000000
C     1.250000000     1.527000000     4.387000000
C     0.943000000     2.960000000     4.637000000
H     0.487000000     2.993000000     5.628000000
C     0.150000000     3.524000000     3.474000000
C    -1.241000000     3.472000000     3.492000000
H    -1.671000000     3.063000000     4.403000000
H     1.799000000     3.621000000     4.789000000
C     0.328000000     0.494000000     4.727000000
H    -0.572000000     0.910000000     5.172000000
C     0.715000000    -0.875000000     4.660000000
C    -0.329000000    -1.874000000     5.166000000
H    -0.852000000    -1.403000000     6.001000000
H     0.285000000    -2.704000000     5.522000000
C    -1.370000000    -2.349000000     4.087000000
C    -2.576000000    -1.659000000     4.036000000
H    -2.693000000    -0.793000000     4.683000000
C    -1.061000000    -3.317000000     3.141000000
C    -1.974000000    -3.627000000     2.149000000
H    -1.573000000    -4.263000000     1.364000000
C    -3.182000000    -2.968000000     2.117000000
O    -3.984000000    -3.119000000     1.024000000
C    -3.757000000    -2.144000000     0.015000000
C    -3.483000000    -2.843000000    -1.214000000
C    -3.250000000    -2.074000000    -2.379000000
H    -3.284000000    -0.988000000    -2.382000000
C    -3.221000000    -4.192000000    -1.332000000
H    -3.320000000    -4.861000000    -0.481000000
O    -4.961000000    -1.304000000     0.003000000
H    -2.866000000    -1.547000000     0.261000000
C    -3.518000000    -1.994000000     3.057000000
C    -4.776000000    -1.227000000     2.911000000
H    -5.077000000    -0.908000000     3.911000000
H    -5.578000000    -1.914000000     2.634000000
C    -4.669000000     0.039000000     1.991000000
C    -4.389000000     1.290000000     2.541000000
H    -4.284000000     1.318000000     3.622000000
C    -4.788000000    -0.059000000     0.590000000
C    -4.758000000     1.061000000    -0.184000000
H    -4.715000000     0.998000000    -1.268000000
C    -4.315000000     2.251000000     0.409000000
O    -3.966000000     3.272000000    -0.397000000
C    -2.562000000     3.420000000    -0.659000000
C    -2.207000000     3.708000000    -2.095000000
C    -2.914000000     3.010000000    -3.116000000
H    -3.693000000     2.286000000    -2.890000000
C    -1.162000000     4.579000000    -2.454000000
H    -0.575000000     5.098000000    -1.701000000
O    -2.131000000     4.597000000     0.121000000
H    -2.038000000     2.474000000    -0.457000000
C    -4.132000000     2.351000000     1.751000000
C    -3.584000000     3.559000000     2.418000000
H    -3.933000000     3.517000000     3.452000000
H    -4.100000000     4.403000000     1.955000000
C    -2.040000000     3.739000000     2.374000000
C    -1.409000000     4.284000000     1.207000000
C     0.020000000     4.406000000     1.178000000
H     0.534000000     4.805000000     0.307000000
C     0.804000000     4.030000000     2.279000000
O     2.164000000     3.961000000     2.156000000
C     2.756000000     2.715000000     1.813000000
H     2.075000000     2.058000000     1.251000000
C     3.942000000     2.796000000     0.853000000
C     5.168000000     2.078000000     1.057000000
H     5.343000000     1.650000000     2.041000000
C     3.694000000     3.418000000    -0.359000000
H     2.739000000     3.870000000    -0.615000000
C     4.718000000     3.374000000    -1.334000000
O     4.534000000     4.000000000    -2.602000000
C     5.845000000     2.690000000    -1.149000000
H     6.595000000     2.731000000    -1.934000000
C     6.111000000     2.036000000     0.034000000
O     7.247000000     1.228000000     0.120000000
C     7.181000000    -0.076000000     0.535000000
C     6.339000000    -0.988000000    -0.041000000
H     5.766000000    -0.691000000    -0.916000000
C     7.803000000    -0.336000000     1.797000000
H     8.354000000     0.404000000     2.372000000
C     7.696000000    -1.623000000     2.324000000
H     8.143000000    -1.848000000     3.289000000
C     6.924000000    -2.561000000     1.638000000
H     6.964000000    -3.574000000     2.032000000
C     6.269000000    -2.285000000     0.472000000
O     5.559000000    -3.298000000    -0.230000000
C     4.297000000    -3.797000000     0.117000000
C     3.826000000    -4.893000000    -0.581000000
H     4.393000000    -5.289000000    -1.421000000
C     2.473000000    -5.250000000    -0.382000000
O     1.990000000    -6.213000000    -1.236000000
C     0.739000000    -6.766000000    -1.217000000
C    -0.247000000    -6.228000000    -2.004000000
H     0.037000000    -5.544000000    -2.800000000
C     0.453000000    -7.720000000    -0.297000000
H     1.201000000    -8.241000000     0.294000000
C    -0.824000000    -8.222000000    -0.249000000
H    -0.965000000    -9.151000000     0.298000000
C    -1.899000000    -7.804000000    -1.031000000
H    -2.920000000    -8.160000000    -1.138000000
C    -1.575000000    -6.685000000    -1.802000000
O    -2.594000000    -6.171000000    -2.671000000
C    -2.811000000    -4.791000000    -2.504000000
C    -2.711000000    -4.037000000    -3.620000000
H    -2.574000000    -4.496000000    -4.596000000
C    -2.960000000    -2.706000000    -3.567000000
O    -2.987000000    -2.002000000    -4.770000000
C    -3.766000000    -0.915000000    -5.084000000
C    -3.158000000     0.362000000    -5.053000000
H    -2.198000000     0.633000000    -4.619000000
C    -4.928000000    -1.156000000    -5.766000000
H    -5.433000000    -2.118000000    -5.743000000
C    -5.573000000     0.006000000    -6.284000000
H    -6.500000000    -0.142000000    -6.831000000
C    -5.019000000     1.274000000    -6.151000000
H    -5.527000000     2.069000000    -6.691000000
C    -3.828000000     1.505000000    -5.530000000
O    -3.388000000     2.755000000    -5.485000000
C    -2.637000000     3.302000000    -4.452000000
C    -1.624000000     4.233000000    -4.713000000
H    -1.453000000     4.579000000    -5.730000000
C    -0.808000000     4.772000000    -3.754000000
O     0.251000000     5.550000000    -4.096000000
C     1.411000000     5.799000000    -3.410000000
C     1.555000000     7.064000000    -2.811000000
H     0.822000000     7.865000000    -2.863000000
C     2.830000000     7.293000000    -2.263000000
H     3.117000000     8.201000000    -1.740000000
C     3.861000000     6.301000000    -2.294000000
H     4.814000000     6.455000000    -1.795000000
C     3.593000000     5.022000000    -2.793000000
C     2.381000000     4.754000000    -3.388000000
H     2.077000000     3.784000000    -3.773000000
C     0.679000000    -0.516000000    -2.612000000
H     0.140000000    -0.554000000    -3.555000000
C    -0.132000000    -0.086000000    -1.542000000
H    -1.199000000     0.067000000    -1.681000000
C     0.418000000     0.031000000    -0.305000000
C    -0.382000000     0.541000000     0.884000000
H    -0.027000000     1.391000000     1.471000000
H    -1.434000000     0.763000000     0.694000000
H    -0.483000000    -0.167000000     1.708000000
C     1.804000000    -0.323000000    -0.088000000
H     2.067000000    -0.280000000     0.965000000
C     2.569000000    -0.764000000    -1.185000000
H     3.589000000    -1.106000000    -1.031000000
C     2.021000000    -0.959000000    -2.466000000
C     2.845000000    -1.485000000    -3.616000000
O     3.798000000    -2.219000000    -3.298000000
O     2.337000000    -1.467000000    -4.731000000
O     8.694000000    -1.669000000    -4.167000000
H     9.007000000    -2.513000000    -4.493000000
H     7.740000000    -1.746000000    -4.183000000
O     6.546000000    -0.798000000    -7.928000000
H     7.233000000    -0.132000000    -7.973000000
H     6.050000000    -0.578000000    -7.139000000
O     3.328000000    -3.335000000    -6.349000000
H     4.237000000    -3.630000000    -6.296000000
H     3.369000000    -2.396000000    -6.168000000
O     5.060000000    -0.437000000    -5.702000000
H     4.665000000    -1.048000000    -5.080000000
H     4.935000000     0.424000000    -5.304000000
O     6.220000000    -3.470000000    -3.635000000
H     5.427000000    -3.060000000    -3.290000000
H     6.788000000    -3.572000000    -2.872000000
O     4.573000000     0.810000000    -8.757000000
H     5.202000000     0.137000000    -8.497000000
H     3.722000000     0.453000000    -8.501000000
O     1.401000000    -6.558000000    -5.735000000
H     2.010000000    -6.622000000    -6.471000000
H     1.806000000    -5.923000000    -5.144000000
O    -1.770000000    -3.775000000    -6.743000000
H    -0.834000000    -3.899000000    -6.900000000
H    -1.813000000    -3.068000000    -6.099000000
O     0.406000000    -1.323000000    -8.354000000
H     1.111000000    -0.754000000    -8.047000000
H     0.473000000    -2.105000000    -7.806000000
O     0.896000000    -4.087000000    -7.453000000
H     1.644000000    -3.888000000    -6.890000000
H     1.203000000    -4.800000000    -8.014000000
O     0.151000000    -2.992000000    -4.616000000
H     0.779000000    -3.679000000    -4.393000000
H     0.664000000    -2.184000000    -4.597000000
O     3.220000000     3.358000000    -5.933000000
H     3.382000000     4.301000000    -5.903000000
H     2.885000000     3.201000000    -6.816000000
O     2.396000000    -4.822000000    -3.797000000
H     2.541000000    -4.993000000    -2.867000000
H     2.882000000    -4.017000000    -3.972000000
O     5.155000000     2.092000000    -4.559000000
H     5.134000000     2.703000000    -3.822000000
H     4.516000000     2.443000000    -5.178000000
O    -1.707000000     0.215000000    -7.903000000
H    -0.952000000    -0.331000000    -8.120000000
H    -2.421000000    -0.407000000    -7.762000000
O     5.961000000    -6.779000000    -2.957000000
H     6.582000000    -6.206000000    -3.407000000
H     6.452000000    -7.125000000    -2.212000000
O     7.670000000     1.577000000    -5.252000000
H     6.989000000     1.497000000    -4.585000000
H     7.239000000     2.021000000    -5.983000000
O     7.066000000    -3.423000000    -6.232000000
H     6.884000000    -3.440000000    -5.293000000
H     7.325000000    -2.519000000    -6.410000000
O     2.249000000     0.060000000    -7.018000000
H     2.411000000     0.979000000    -6.808000000
H     2.302000000    -0.392000000    -6.176000000
