218
-1426.42362
C     1.221000000    -5.176000000    -0.106000000
H     0.138000000    -5.269000000    -0.102000000
C     1.868000000    -4.503000000     0.873000000
C     3.275000000    -4.326000000     0.797000000
H     3.811000000    -3.942000000     1.661000000
C     1.124000000    -3.748000000     1.980000000
O    -0.074000000    -4.557000000     2.262000000
H     0.684000000    -2.847000000     1.527000000
O     1.880000000    -3.429000000     3.168000000
C     1.684000000    -2.189000000     3.685000000
C     2.627000000    -1.242000000     3.508000000
H     3.598000000    -1.469000000     3.076000000
C     2.378000000    -0.003000000     4.011000000
O     3.255000000     1.066000000     3.480000000
C     1.199000000     0.340000000     4.696000000
C     0.985000000     1.771000000     5.071000000
H     0.527000000     1.838000000     6.061000000
C     0.281000000     2.663000000     4.067000000
C    -1.093000000     2.946000000     4.123000000
H    -1.601000000     2.506000000     4.978000000
H     1.915000000     2.292000000     5.307000000
C     0.313000000    -0.679000000     4.995000000
H    -0.562000000    -0.497000000     5.614000000
C     0.545000000    -1.937000000     4.538000000
C    -0.495000000    -3.036000000     4.729000000
H    -0.997000000    -2.714000000     5.644000000
H    -0.022000000    -3.984000000     4.992000000
C    -1.549000000    -3.181000000     3.600000000
C    -2.735000000    -2.423000000     3.635000000
H    -2.876000000    -1.774000000     4.496000000
C    -1.216000000    -3.887000000     2.460000000
C    -2.105000000    -3.848000000     1.366000000
H    -1.859000000    -4.391000000     0.458000000
C    -3.224000000    -3.006000000     1.336000000
O    -3.923000000    -2.880000000     0.190000000
C    -3.586000000    -1.789000000    -0.665000000
C    -3.479000000    -2.134000000    -2.121000000
C    -3.822000000    -1.173000000    -3.060000000
H    -4.190000000    -0.181000000    -2.810000000
C    -3.063000000    -3.363000000    -2.563000000
H    -2.612000000    -3.958000000    -1.774000000
O    -4.628000000    -0.863000000    -0.348000000
H    -2.608000000    -1.341000000    -0.433000000
C    -3.545000000    -2.274000000     2.493000000
C    -4.667000000    -1.304000000     2.510000000
H    -5.025000000    -1.184000000     3.535000000
H    -5.571000000    -1.678000000     2.023000000
C    -4.328000000    -0.023000000     1.911000000
C    -3.955000000     1.073000000     2.737000000
H    -3.930000000     0.875000000     3.805000000
C    -4.308000000     0.122000000     0.517000000
C    -4.082000000     1.371000000    -0.013000000
H    -4.025000000     1.536000000    -1.086000000
C    -3.698000000     2.431000000     0.776000000
O    -3.336000000     3.509000000     0.015000000
C    -1.906000000     3.867000000     0.027000000
C    -1.520000000     4.394000000    -1.320000000
C    -1.942000000     3.786000000    -2.456000000
H    -2.514000000     2.864000000    -2.383000000
C    -0.709000000     5.547000000    -1.471000000
H    -0.258000000     6.097000000    -0.649000000
O    -1.650000000     4.767000000     1.045000000
H    -1.291000000     2.972000000     0.205000000
C    -3.713000000     2.331000000     2.194000000
C    -3.270000000     3.476000000     3.060000000
H    -3.764000000     3.456000000     4.034000000
H    -3.734000000     4.322000000     2.549000000
C    -1.740000000     3.681000000     3.125000000
C    -1.022000000     4.262000000     2.138000000
C     0.383000000     4.118000000     2.093000000
H     0.996000000     4.519000000     1.290000000
C     1.013000000     3.253000000     3.004000000
O     2.392000000     3.092000000     2.846000000
C     2.809000000     1.805000000     2.364000000
H     1.900000000     1.262000000     2.067000000
C     3.715000000     1.876000000     1.153000000
C     4.607000000     0.865000000     0.824000000
H     4.618000000    -0.075000000     1.369000000
C     3.763000000     2.980000000     0.311000000
H     3.126000000     3.817000000     0.584000000
C     4.579000000     3.130000000    -0.768000000
O     4.722000000     4.388000000    -1.429000000
C     5.543000000     2.142000000    -1.038000000
H     6.241000000     2.275000000    -1.860000000
C     5.499000000     0.970000000    -0.257000000
O     6.467000000     0.028000000    -0.433000000
C     6.528000000    -1.173000000     0.146000000
C     5.906000000    -2.345000000    -0.372000000
H     5.233000000    -2.109000000    -1.193000000
C     7.405000000    -1.284000000     1.206000000
H     7.950000000    -0.433000000     1.606000000
C     7.539000000    -2.545000000     1.820000000
H     8.309000000    -2.624000000     2.583000000
C     6.872000000    -3.672000000     1.318000000
H     6.967000000    -4.683000000     1.706000000
C     6.048000000    -3.597000000     0.221000000
O     5.385000000    -4.732000000    -0.210000000
C     3.992000000    -4.874000000    -0.245000000
C     3.311000000    -5.552000000    -1.232000000
H     3.836000000    -6.003000000    -2.070000000
C     1.967000000    -5.680000000    -1.182000000
O     1.348000000    -6.158000000    -2.315000000
C     0.021000000    -6.416000000    -2.517000000
C    -0.694000000    -5.447000000    -3.135000000
H    -0.302000000    -4.442000000    -3.272000000
C    -0.435000000    -7.720000000    -2.421000000
H     0.210000000    -8.504000000    -2.033000000
C    -1.728000000    -8.027000000    -2.780000000
H    -2.021000000    -9.072000000    -2.732000000
C    -2.479000000    -7.062000000    -3.402000000
H    -3.552000000    -7.147000000    -3.551000000
C    -1.991000000    -5.836000000    -3.627000000
O    -2.673000000    -4.952000000    -4.359000000
C    -3.075000000    -3.736000000    -3.931000000
C    -3.585000000    -2.787000000    -4.880000000
H    -3.648000000    -2.955000000    -5.952000000
C    -3.988000000    -1.509000000    -4.464000000
O    -4.276000000    -0.507000000    -5.444000000
C    -4.333000000     0.861000000    -5.128000000
C    -3.221000000     1.573000000    -5.403000000
H    -2.296000000     1.170000000    -5.808000000
C    -5.533000000     1.437000000    -4.672000000
H    -6.453000000     0.859000000    -4.648000000
C    -5.521000000     2.765000000    -4.299000000
H    -6.463000000     3.190000000    -3.962000000
C    -4.362000000     3.533000000    -4.514000000
H    -4.315000000     4.567000000    -4.183000000
C    -3.222000000     2.919000000    -4.962000000
O    -2.088000000     3.643000000    -4.937000000
C    -1.600000000     4.232000000    -3.766000000
C    -0.686000000     5.262000000    -3.939000000
H    -0.389000000     5.573000000    -4.937000000
C    -0.204000000     5.869000000    -2.719000000
O     0.741000000     6.882000000    -2.786000000
C     1.929000000     6.720000000    -2.082000000
C     2.341000000     7.884000000    -1.374000000
H     1.654000000     8.727000000    -1.376000000
C     3.542000000     7.835000000    -0.625000000
H     3.870000000     8.691000000    -0.041000000
C     4.330000000     6.615000000    -0.680000000
H     5.234000000     6.532000000    -0.081000000
C     3.858000000     5.464000000    -1.324000000
C     2.632000000     5.575000000    -2.056000000
H     2.353000000     4.824000000    -2.790000000
C    -0.352000000    -1.060000000    -2.909000000
H    -0.948000000    -0.838000000    -3.790000000
C    -0.705000000    -0.403000000    -1.741000000
H    -1.583000000     0.232000000    -1.646000000
C     0.158000000    -0.453000000    -0.651000000
C    -0.272000000     0.214000000     0.573000000
H     0.083000000     1.247000000     0.576000000
H    -1.352000000     0.053000000     0.570000000
H     0.224000000    -0.331000000     1.379000000
C     1.332000000    -1.223000000    -0.712000000
H     1.995000000    -1.252000000     0.149000000
C     1.655000000    -1.889000000    -1.857000000
H     2.575000000    -2.468000000    -1.835000000
C     0.899000000    -1.740000000    -3.010000000
C     1.471000000    -2.172000000    -4.359000000
O     2.615000000    -2.485000000    -4.382000000
O     0.735000000    -2.542000000    -5.180000000
O     6.801000000    -3.212000000    -4.177000000
H     7.272000000    -2.782000000    -3.463000000
H     6.666000000    -4.108000000    -3.870000000
O     3.209000000     0.610000000    -6.488000000
H     4.139000000     0.606000000    -6.712000000
H     3.178000000     0.971000000    -5.602000000
O    -1.217000000    -7.605000000    -6.211000000
H    -1.842000000    -6.994000000    -6.602000000
H    -1.746000000    -8.146000000    -5.625000000
O     2.068000000    -2.089000000    -7.494000000
H     1.721000000    -2.345000000    -6.640000000
H     2.491000000    -1.245000000    -7.338000000
O     5.049000000    -0.817000000    -4.016000000
H     4.317000000    -1.424000000    -4.121000000
H     5.820000000    -1.326000000    -4.266000000
O    -0.926000000    -0.828000000    -7.358000000
H    -1.008000000    -1.646000000    -7.849000000
H    -0.587000000    -1.095000000    -6.504000000
O     4.321000000    -4.374000000    -5.435000000
H     3.696000000    -3.743000000    -5.077000000
H     3.853000000    -5.209000000    -5.422000000
O     0.132000000    -6.887000000    -8.602000000
H    -0.433000000    -7.382000000    -8.010000000
H    -0.241000000    -6.005000000    -8.608000000
O     1.657000000    -2.259000000   -10.235000000
H     1.769000000    -2.484000000    -9.311000000
H     0.771000000    -2.553000000   -10.447000000
O     5.741000000     0.908000000    -7.859000000
H     6.241000000     0.788000000    -7.052000000
H     6.375000000     1.260000000    -8.484000000
O    -2.899000000     0.447000000    -8.778000000
H    -2.613000000     0.062000000    -9.606000000
H    -2.331000000     0.048000000    -8.119000000
O     0.731000000     1.752000000    -7.775000000
H     0.118000000     1.036000000    -7.940000000
H     1.484000000     1.332000000    -7.360000000
O    -0.944000000    -3.683000000    -6.978000000
H    -1.579000000    -4.111000000    -6.404000000
H    -0.293000000    -3.314000000    -6.381000000
O     3.751000000    -4.228000000    -8.138000000
H     4.156000000    -4.526000000    -7.324000000
H     3.053000000    -3.636000000    -7.857000000
O    -0.788000000    -3.603000000   -10.004000000
H    -1.533000000    -3.338000000   -10.542000000
H    -1.178000000    -4.087000000    -9.276000000
O     1.485000000    -5.721000000    -5.532000000
H     1.258000000    -4.925000000    -5.051000000
H     0.733000000    -5.878000000    -6.103000000
O     3.870000000     1.370000000    -3.788000000
H     3.391000000     1.327000000    -2.960000000
H     4.269000000     0.505000000    -3.879000000
O     6.277000000    -6.272000000    -6.443000000
H     5.749000000    -5.698000000    -5.888000000
H     6.891000000    -5.683000000    -6.882000000
O     3.752000000    -7.461000000    -4.681000000
H     2.869000000    -7.098000000    -4.606000000
H     3.972000000    -7.742000000    -3.792000000
