218
-1455.07767
C     1.513000000    -4.643000000     1.863000000
H     0.484000000    -4.889000000     2.113000000
C     2.095000000    -3.441000000     2.295000000
C     3.459000000    -3.163000000     2.204000000
H     3.844000000    -2.229000000     2.606000000
C     1.261000000    -2.432000000     3.102000000
O     0.252000000    -3.049000000     3.885000000
H     0.761000000    -1.708000000     2.441000000
O     2.020000000    -1.629000000     4.026000000
C     1.839000000    -0.239000000     4.098000000
C     2.693000000     0.598000000     3.433000000
H     3.541000000     0.157000000     2.914000000
C     2.485000000     1.962000000     3.454000000
O     3.335000000     2.785000000     2.687000000
C     1.299000000     2.525000000     4.014000000
C     0.990000000     3.954000000     3.888000000
H     0.280000000     4.266000000     4.657000000
C     0.262000000     4.211000000     2.534000000
C    -1.099000000     4.266000000     2.504000000
H    -1.671000000     4.159000000     3.422000000
H     1.870000000     4.587000000     4.015000000
C     0.419000000     1.648000000     4.663000000
H    -0.487000000     2.040000000     5.118000000
C     0.704000000     0.245000000     4.725000000
C    -0.263000000    -0.657000000     5.417000000
H    -0.814000000    -0.062000000     6.148000000
H     0.263000000    -1.447000000     5.956000000
C    -1.278000000    -1.252000000     4.413000000
C    -2.514000000    -0.676000000     4.083000000
H    -2.696000000     0.238000000     4.642000000
C    -0.970000000    -2.459000000     3.806000000
C    -1.914000000    -2.980000000     2.894000000
H    -1.784000000    -3.908000000     2.343000000
C    -3.193000000    -2.376000000     2.627000000
O    -3.908000000    -2.859000000     1.530000000
C    -3.870000000    -2.167000000     0.280000000
C    -3.904000000    -3.182000000    -0.872000000
C    -4.514000000    -2.827000000    -2.063000000
H    -5.221000000    -2.002000000    -2.044000000
C    -3.033000000    -4.289000000    -0.968000000
H    -2.454000000    -4.583000000    -0.096000000
O    -4.857000000    -1.130000000     0.174000000
H    -2.927000000    -1.614000000     0.161000000
C    -3.462000000    -1.164000000     3.258000000
C    -4.672000000    -0.327000000     2.974000000
H    -5.049000000     0.166000000     3.873000000
H    -5.479000000    -1.006000000     2.691000000
C    -4.421000000     0.622000000     1.846000000
C    -3.964000000     1.924000000     2.077000000
H    -3.792000000     2.307000000     3.080000000
C    -4.516000000     0.192000000     0.519000000
C    -4.247000000     1.055000000    -0.562000000
H    -4.253000000     0.741000000    -1.602000000
C    -3.872000000     2.371000000    -0.338000000
O    -3.510000000     3.102000000    -1.419000000
C    -2.186000000     3.259000000    -1.735000000
C    -1.820000000     3.104000000    -3.217000000
C    -2.604000000     2.303000000    -3.970000000
H    -3.523000000     1.908000000    -3.545000000
C    -0.617000000     3.615000000    -3.676000000
H     0.030000000     4.285000000    -3.116000000
O    -1.593000000     4.423000000    -1.164000000
H    -1.635000000     2.472000000    -1.200000000
C    -3.736000000     2.797000000     1.022000000
C    -3.293000000     4.248000000     1.359000000
H    -3.607000000     4.442000000     2.387000000
H    -3.754000000     4.899000000     0.614000000
C    -1.764000000     4.338000000     1.311000000
C    -1.028000000     4.325000000     0.093000000
C     0.332000000     4.395000000     0.140000000
H     0.929000000     4.630000000    -0.737000000
C     1.007000000     4.398000000     1.332000000
O     2.296000000     4.334000000     1.270000000
C     2.974000000     3.014000000     1.293000000
H     2.344000000     2.174000000     0.963000000
C     4.212000000     2.898000000     0.371000000
C     5.274000000     1.975000000     0.646000000
H     5.220000000     1.381000000     1.555000000
C     4.251000000     3.620000000    -0.819000000
H     3.480000000     4.343000000    -1.075000000
C     5.234000000     3.252000000    -1.852000000
O     5.124000000     3.786000000    -3.106000000
C     6.185000000     2.244000000    -1.574000000
H     6.950000000     2.048000000    -2.321000000
C     6.209000000     1.625000000    -0.283000000
O     7.144000000     0.620000000    -0.047000000
C     7.049000000    -0.364000000     0.847000000
C     6.341000000    -1.521000000     0.571000000
H     5.949000000    -1.652000000    -0.435000000
C     7.449000000    -0.121000000     2.181000000
H     8.087000000     0.720000000     2.438000000
C     7.370000000    -1.176000000     3.116000000
H     7.842000000    -1.014000000     4.082000000
C     6.778000000    -2.438000000     2.750000000
H     6.782000000    -3.255000000     3.467000000
C     6.209000000    -2.581000000     1.509000000
O     5.556000000    -3.758000000     1.151000000
C     4.197000000    -4.011000000     1.428000000
C     3.581000000    -5.084000000     0.824000000
H     4.164000000    -5.674000000     0.123000000
C     2.318000000    -5.505000000     1.098000000
O     1.872000000    -6.642000000     0.433000000
C     0.589000000    -6.978000000     0.275000000
C    -0.046000000    -6.525000000    -0.897000000
H     0.555000000    -5.875000000    -1.528000000
C    -0.135000000    -7.690000000     1.200000000
H     0.287000000    -8.138000000     2.096000000
C    -1.528000000    -7.959000000     0.987000000
H    -2.039000000    -8.588000000     1.711000000
C    -2.124000000    -7.512000000    -0.151000000
H    -3.140000000    -7.702000000    -0.487000000
C    -1.423000000    -6.764000000    -1.096000000
O    -2.042000000    -6.200000000    -2.190000000
C    -2.923000000    -5.044000000    -2.135000000
C    -3.535000000    -4.683000000    -3.313000000
H    -3.343000000    -5.266000000    -4.210000000
C    -4.262000000    -3.496000000    -3.316000000
O    -4.907000000    -3.179000000    -4.523000000
C    -5.024000000    -1.870000000    -4.872000000
C    -3.896000000    -1.168000000    -5.250000000
H    -2.983000000    -1.733000000    -5.415000000
C    -6.262000000    -1.173000000    -4.635000000
H    -7.138000000    -1.755000000    -4.363000000
C    -6.280000000     0.199000000    -4.722000000
H    -7.168000000     0.783000000    -4.494000000
C    -5.146000000     0.886000000    -5.171000000
H    -5.329000000     1.956000000    -5.237000000
C    -3.912000000     0.206000000    -5.440000000
O    -2.740000000     0.847000000    -5.920000000
C    -2.104000000     1.812000000    -5.229000000
C    -1.004000000     2.438000000    -5.777000000
H    -0.609000000     2.165000000    -6.752000000
C    -0.268000000     3.318000000    -5.007000000
O     0.892000000     3.881000000    -5.572000000
C     1.928000000     4.528000000    -4.886000000
C     1.779000000     5.841000000    -4.611000000
H     0.848000000     6.295000000    -4.941000000
C     2.677000000     6.490000000    -3.789000000
H     2.644000000     7.548000000    -3.543000000
C     3.821000000     5.836000000    -3.345000000
H     4.526000000     6.384000000    -2.725000000
C     4.016000000     4.485000000    -3.685000000
C     3.055000000     3.834000000    -4.389000000
H     3.078000000     2.765000000    -4.584000000
C    -0.544000000    -1.981000000    -2.490000000
H    -1.196000000    -2.190000000    -3.334000000
C    -0.871000000    -0.976000000    -1.515000000
H    -1.786000000    -0.401000000    -1.395000000
C    -0.054000000    -0.859000000    -0.427000000
C    -0.323000000     0.318000000     0.509000000
H    -0.061000000     0.171000000     1.559000000
H     0.141000000     1.230000000     0.127000000
H    -1.375000000     0.609000000     0.487000000
C     1.227000000    -1.411000000    -0.393000000
H     1.983000000    -1.166000000     0.348000000
C     1.533000000    -2.381000000    -1.339000000
H     2.452000000    -2.956000000    -1.263000000
C     0.632000000    -2.713000000    -2.315000000
C     1.026000000    -3.685000000    -3.415000000
O     2.144000000    -4.189000000    -3.380000000
O     0.263000000    -3.904000000    -4.335000000
O     4.973000000    -7.989000000    -1.786000000
H     4.314000000    -7.410000000    -2.168000000
H     5.808000000    -7.641000000    -2.100000000
O     6.240000000    -1.691000000    -2.844000000
H     5.698000000    -2.422000000    -2.547000000
H     5.613000000    -1.047000000    -3.175000000
O     6.300000000    -6.716000000    -4.213000000
H     5.482000000    -6.599000000    -3.730000000
H     6.592000000    -5.826000000    -4.410000000
O     1.533000000    -5.458000000    -6.802000000
H     0.750000000    -5.376000000    -6.259000000
H     1.867000000    -4.564000000    -6.878000000
O     4.215000000     0.418000000    -3.518000000
H     4.227000000     0.751000000    -4.415000000
H     3.300000000     0.186000000    -3.360000000
O     4.576000000    -3.577000000    -2.317000000
H     3.651000000    -3.818000000    -2.374000000
H     5.045000000    -4.363000000    -2.596000000
O    -0.911000000    -6.066000000    -4.789000000
H    -1.130000000    -6.526000000    -3.978000000
H    -0.369000000    -5.329000000    -4.507000000
O    -3.264000000    -6.245000000    -6.413000000
H    -2.534000000    -6.156000000    -5.800000000
H    -3.443000000    -5.351000000    -6.704000000
O     5.145000000    -2.709000000    -7.405000000
H     4.570000000    -2.556000000    -6.656000000
H     4.638000000    -2.411000000    -8.161000000
O     0.170000000    -1.798000000    -6.279000000
H    -0.710000000    -1.526000000    -6.537000000
H     0.035000000    -2.601000000    -5.776000000
O     1.206000000    -8.146000000    -7.714000000
H     1.270000000    -7.239000000    -7.416000000
H     1.385000000    -8.103000000    -8.654000000
O     7.169000000    -4.066000000    -3.707000000
H     6.869000000    -3.234000000    -3.342000000
H     8.103000000    -4.096000000    -3.500000000
O    -1.301000000    -9.194000000    -3.379000000
H    -1.323000000    -9.191000000    -4.336000000
H    -2.196000000    -9.416000000    -3.120000000
O     1.419000000    -8.453000000    -3.286000000
H     1.449000000    -8.173000000    -2.372000000
H     0.500000000    -8.670000000    -3.441000000
O     3.451000000    -6.510000000    -3.348000000
H     2.872000000    -7.218000000    -3.628000000
H     3.008000000    -5.711000000    -3.634000000
O     1.542000000     0.061000000    -3.645000000
H     0.783000000     0.641000000    -3.587000000
H     1.491000000    -0.480000000    -2.857000000
O     2.700000000    -2.140000000    -8.725000000
H     2.140000000    -1.428000000    -9.034000000
H     2.632000000    -2.102000000    -7.771000000
O     3.697000000    -6.426000000    -8.637000000
H     4.641000000    -6.265000000    -8.657000000
H     3.471000000    -6.404000000    -7.707000000
O     2.873000000    -2.279000000    -5.889000000
H     2.045000000    -1.802000000    -5.938000000
H     2.772000000    -2.857000000    -5.133000000
