218
-1495.00295
C    -3.769000000    -2.391000000     3.283000000
H    -4.165000000    -2.997000000     2.472000000
C    -3.460000000    -1.034000000     3.156000000
C    -2.770000000    -0.481000000     4.241000000
H    -2.482000000     0.565000000     4.171000000
C    -3.767000000    -0.166000000     1.917000000
O    -4.855000000    -0.737000000     1.150000000
H    -2.899000000    -0.081000000     1.247000000
O    -4.284000000     1.148000000     2.333000000
C    -3.948000000     2.212000000     1.617000000
C    -2.827000000     2.976000000     2.097000000
H    -2.464000000     2.845000000     3.113000000
C    -2.133000000     3.925000000     1.258000000
O    -0.970000000     4.503000000     1.783000000
C    -2.521000000     4.059000000    -0.100000000
C    -1.904000000     5.125000000    -1.049000000
H    -2.713000000     5.407000000    -1.726000000
C    -0.749000000     4.514000000    -1.762000000
C    -0.980000000     3.908000000    -2.998000000
H    -1.899000000     3.966000000    -3.575000000
H    -1.629000000     6.028000000    -0.501000000
C    -3.650000000     3.356000000    -0.479000000
H    -4.037000000     3.441000000    -1.491000000
C    -4.353000000     2.376000000     0.256000000
C    -5.473000000     1.594000000    -0.378000000
H    -5.864000000     2.212000000    -1.189000000
H    -6.246000000     1.453000000     0.381000000
C    -5.009000000     0.242000000    -1.048000000
C    -4.623000000     0.190000000    -2.335000000
H    -4.802000000     1.035000000    -2.995000000
C    -4.679000000    -0.812000000    -0.240000000
C    -4.089000000    -1.950000000    -0.706000000
H    -3.910000000    -2.760000000    -0.002000000
C    -3.870000000    -2.065000000    -2.058000000
O    -3.148000000    -3.193000000    -2.482000000
C    -1.689000000    -3.151000000    -2.584000000
C    -0.941000000    -4.311000000    -2.072000000
C     0.150000000    -4.868000000    -2.732000000
H     0.536000000    -4.329000000    -3.594000000
C    -1.273000000    -4.786000000    -0.810000000
H    -2.095000000    -4.366000000    -0.236000000
O    -1.436000000    -2.868000000    -3.969000000
H    -1.351000000    -2.265000000    -2.027000000
C    -4.023000000    -0.931000000    -2.910000000
C    -3.646000000    -0.962000000    -4.371000000
H    -4.234000000    -0.162000000    -4.825000000
H    -4.017000000    -1.871000000    -4.850000000
C    -2.176000000    -0.627000000    -4.546000000
C    -1.837000000     0.692000000    -4.788000000
H    -2.561000000     1.498000000    -4.880000000
C    -1.163000000    -1.613000000    -4.439000000
C     0.167000000    -1.212000000    -4.437000000
H     0.975000000    -1.917000000    -4.256000000
C     0.581000000     0.087000000    -4.514000000
O     1.962000000     0.382000000    -4.469000000
C     2.355000000     1.145000000    -3.270000000
C     3.663000000     0.583000000    -2.645000000
C     3.811000000    -0.824000000    -2.459000000
H     3.061000000    -1.496000000    -2.867000000
C     4.578000000     1.411000000    -2.037000000
H     4.350000000     2.471000000    -2.114000000
O     2.423000000     2.534000000    -3.636000000
H     1.604000000     0.971000000    -2.485000000
C    -0.443000000     1.089000000    -4.811000000
C    -0.048000000     2.553000000    -5.030000000
H    -0.864000000     3.021000000    -5.585000000
H     0.924000000     2.549000000    -5.527000000
C     0.145000000     3.290000000    -3.644000000
C     1.383000000     3.314000000    -3.070000000
C     1.593000000     3.984000000    -1.824000000
H     2.593000000     3.931000000    -1.400000000
C     0.534000000     4.622000000    -1.207000000
O     0.707000000     4.990000000     0.068000000
C     0.313000000     4.069000000     1.152000000
H     0.107000000     3.121000000     0.634000000
C     1.375000000     3.865000000     2.164000000
C     1.015000000     3.253000000     3.371000000
H    -0.031000000     3.036000000     3.574000000
C     2.692000000     4.259000000     1.872000000
H     2.864000000     4.841000000     0.971000000
C     3.681000000     3.951000000     2.812000000
O     4.956000000     4.451000000     2.703000000
C     3.316000000     3.456000000     4.076000000
H     4.014000000     3.332000000     4.900000000
C     1.988000000     2.999000000     4.328000000
O     1.688000000     2.504000000     5.565000000
C     0.398000000     2.261000000     6.045000000
C    -0.149000000     0.982000000     5.931000000
H     0.530000000     0.177000000     5.658000000
C    -0.406000000     3.293000000     6.575000000
H     0.148000000     4.222000000     6.689000000
C    -1.659000000     3.062000000     7.120000000
H    -2.196000000     3.891000000     7.575000000
C    -2.174000000     1.775000000     7.089000000
H    -3.109000000     1.532000000     7.587000000
C    -1.473000000     0.731000000     6.412000000
O    -1.847000000    -0.604000000     6.438000000
C    -2.605000000    -1.161000000     5.463000000
C    -3.019000000    -2.490000000     5.590000000
H    -2.782000000    -3.104000000     6.455000000
C    -3.521000000    -3.106000000     4.463000000
O    -3.663000000    -4.507000000     4.464000000
C    -3.314000000    -5.287000000     3.403000000
C    -2.073000000    -5.098000000     2.796000000
H    -1.320000000    -4.386000000     3.124000000
C    -4.237000000    -6.245000000     2.977000000
H    -5.241000000    -6.291000000     3.393000000
C    -3.906000000    -7.074000000     1.930000000
H    -4.638000000    -7.772000000     1.530000000
C    -2.653000000    -6.970000000     1.321000000
H    -2.386000000    -7.607000000     0.482000000
C    -1.740000000    -6.034000000     1.742000000
O    -0.495000000    -5.898000000     1.189000000
C    -0.412000000    -5.716000000    -0.174000000
C     0.693000000    -6.270000000    -0.880000000
H     1.388000000    -6.989000000    -0.454000000
C     0.874000000    -5.858000000    -2.196000000
O     2.003000000    -6.196000000    -2.921000000
C     3.157000000    -5.418000000    -2.955000000
C     3.428000000    -4.412000000    -2.073000000
H     2.785000000    -4.145000000    -1.238000000
C     4.087000000    -5.665000000    -4.016000000
H     3.830000000    -6.465000000    -4.706000000
C     5.198000000    -4.902000000    -4.151000000
H     5.946000000    -5.133000000    -4.905000000
C     5.511000000    -3.857000000    -3.242000000
H     6.463000000    -3.343000000    -3.345000000
C     4.591000000    -3.654000000    -2.182000000
O     4.785000000    -2.642000000    -1.266000000
C     4.836000000    -1.323000000    -1.695000000
C     5.836000000    -0.462000000    -1.154000000
H     6.674000000    -0.969000000    -0.682000000
C     5.638000000     0.866000000    -1.290000000
O     6.598000000     1.722000000    -0.812000000
C     6.484000000     2.982000000    -0.253000000
C     7.180000000     4.095000000    -0.788000000
H     7.779000000     4.003000000    -1.690000000
C     6.926000000     5.340000000    -0.239000000
H     7.244000000     6.291000000    -0.659000000
C     6.196000000     5.490000000     0.944000000
H     6.037000000     6.477000000     1.370000000
C     5.628000000     4.370000000     1.506000000
C     5.674000000     3.130000000     0.875000000
H     5.169000000     2.237000000     1.234000000
C     2.186000000    -2.950000000     1.523000000
H     2.038000000    -4.013000000     1.699000000
C     1.084000000    -2.180000000     1.109000000
H     0.244000000    -2.826000000     0.868000000
C     1.215000000    -0.805000000     0.856000000
C    -0.044000000    -0.035000000     0.304000000
H    -0.499000000    -0.625000000    -0.495000000
H    -0.845000000    -0.010000000     1.045000000
H     0.200000000     0.984000000    -0.002000000
C     2.340000000    -0.179000000     1.287000000
H     2.499000000     0.896000000     1.319000000
C     3.457000000    -0.945000000     1.740000000
H     4.357000000    -0.384000000     1.978000000
C     3.440000000    -2.296000000     1.840000000
C     4.551000000    -3.155000000     2.394000000
O     5.600000000    -2.603000000     2.638000000
O     4.408000000    -4.367000000     2.666000000
O     5.204000000    -7.480000000    -0.943000000
H     4.556000000    -7.940000000    -1.476000000
H     4.686000000    -6.996000000    -0.301000000
O     7.243000000    -3.751000000     4.181000000
H     6.522000000    -3.339000000     3.705000000
H     7.518000000    -4.475000000     3.619000000
O     2.275000000    -2.208000000     5.838000000
H     3.047000000    -1.685000000     5.620000000
H     2.397000000    -2.443000000     6.758000000
O     8.955000000    -3.653000000     6.295000000
H     8.271000000    -3.661000000     5.625000000
H     9.774000000    -3.616000000     5.800000000
O     0.173000000    -2.054000000     3.874000000
H     1.040000000    -1.864000000     4.232000000
H     0.302000000    -2.061000000     2.926000000
O     1.338000000    -4.712000000     4.436000000
H     2.213000000    -4.568000000     4.796000000
H     0.903000000    -3.864000000     4.518000000
O    10.189000000    -3.841000000     1.273000000
H     9.320000000    -3.521000000     1.030000000
H    10.018000000    -4.583000000     1.852000000
O     5.070000000    -0.974000000     4.777000000
H     5.191000000    -1.575000000     4.043000000
H     5.521000000    -1.395000000     5.509000000
O     7.603000000    -2.901000000     0.772000000
H     7.200000000    -3.587000000     0.240000000
H     6.937000000    -2.679000000     1.423000000
O     5.894000000     1.546000000     5.534000000
H     5.488000000     0.864000000     5.000000000
H     6.363000000     2.095000000     4.905000000
O     7.236000000    -5.656000000    -0.040000000
H     6.734000000    -6.203000000    -0.643000000
H     7.992000000    -5.367000000    -0.551000000
O     5.977000000    -7.060000000     5.354000000
H     5.995000000    -6.688000000     4.472000000
H     6.826000000    -6.827000000     5.729000000
O     7.403000000     1.503000000     3.122000000
H     7.592000000     0.568000000     3.054000000
H     7.946000000     1.907000000     2.445000000
O     6.557000000    -6.079000000     2.831000000
H     5.742000000    -5.576000000     2.820000000
H     6.852000000    -6.074000000     1.920000000
O     8.742000000    -0.546000000     1.626000000
H     9.127000000    -0.738000000     2.482000000
H     8.395000000    -1.386000000     1.326000000
O     4.113000000    -4.997000000     5.072000000
H     4.297000000    -4.645000000     4.201000000
H     4.751000000    -5.702000000     5.185000000
O     5.517000000    -3.374000000     6.882000000
H     5.375000000    -3.767000000     6.021000000
H     5.818000000    -4.098000000     7.430000000
O     1.697000000    -6.885000000     2.842000000
H     1.520000000    -6.389000000     3.642000000
H     1.109000000    -6.505000000     2.190000000
O     3.743000000    -6.583000000     1.198000000
H     3.039000000    -6.936000000     1.742000000
H     4.066000000    -5.826000000     1.687000000
