218
-1481.75057
C     2.543000000    -3.951000000     0.504000000
H     1.503000000    -4.260000000     0.431000000
C     3.026000000    -3.109000000     1.538000000
C     4.339000000    -2.635000000     1.476000000
H     4.793000000    -2.106000000     2.310000000
C     2.040000000    -2.647000000     2.546000000
O     1.288000000    -3.738000000     3.138000000
H     1.351000000    -1.898000000     2.129000000
O     2.814000000    -1.958000000     3.593000000
C     2.351000000    -0.724000000     3.925000000
C     2.937000000     0.363000000     3.338000000
H     3.854000000     0.163000000     2.790000000
C     2.402000000     1.618000000     3.494000000
O     2.942000000     2.606000000     2.773000000
C     1.300000000     1.763000000     4.346000000
C     0.611000000     3.163000000     4.433000000
H     0.103000000     3.104000000     5.398000000
C    -0.284000000     3.406000000     3.215000000
C    -1.663000000     3.340000000     3.414000000
H    -2.020000000     2.883000000     4.333000000
H     1.386000000     3.932000000     4.440000000
C     0.683000000     0.684000000     4.943000000
H    -0.234000000     0.771000000     5.519000000
C     1.191000000    -0.604000000     4.694000000
C     0.563000000    -1.895000000     5.336000000
H     0.075000000    -1.546000000     6.249000000
H     1.380000000    -2.555000000     5.637000000
C    -0.388000000    -2.554000000     4.426000000
C    -1.704000000    -2.079000000     4.369000000
H    -1.931000000    -1.288000000     5.079000000
C    -0.028000000    -3.475000000     3.452000000
C    -0.922000000    -3.874000000     2.492000000
H    -0.613000000    -4.531000000     1.682000000
C    -2.249000000    -3.392000000     2.475000000
O    -3.109000000    -3.767000000     1.457000000
C    -3.370000000    -2.820000000     0.401000000
C    -3.327000000    -3.455000000    -1.008000000
C    -4.073000000    -2.949000000    -2.025000000
H    -4.828000000    -2.227000000    -1.726000000
C    -2.451000000    -4.488000000    -1.323000000
H    -1.855000000    -4.840000000    -0.484000000
O    -4.542000000    -2.097000000     0.652000000
H    -2.518000000    -2.125000000     0.351000000
C    -2.614000000    -2.426000000     3.412000000
C    -3.978000000    -1.743000000     3.389000000
H    -4.322000000    -1.451000000     4.383000000
H    -4.803000000    -2.457000000     3.373000000
C    -4.056000000    -0.592000000     2.448000000
C    -4.072000000     0.758000000     2.910000000
H    -3.825000000     0.939000000     3.953000000
C    -4.334000000    -0.798000000     1.100000000
C    -4.455000000     0.236000000     0.178000000
H    -4.491000000    -0.037000000    -0.874000000
C    -4.415000000     1.556000000     0.605000000
O    -4.379000000     2.547000000    -0.374000000
C    -2.999000000     3.015000000    -0.644000000
C    -2.812000000     3.186000000    -2.136000000
C    -3.399000000     2.328000000    -3.023000000
H    -4.225000000     1.722000000    -2.660000000
C    -1.946000000     4.099000000    -2.675000000
H    -1.504000000     4.805000000    -1.977000000
O    -2.819000000     4.282000000     0.128000000
H    -2.253000000     2.303000000    -0.262000000
C    -4.183000000     1.809000000     1.980000000
C    -3.973000000     3.202000000     2.600000000
H    -4.215000000     3.153000000     3.664000000
H    -4.646000000     3.911000000     2.114000000
C    -2.563000000     3.689000000     2.417000000
C    -2.078000000     4.228000000     1.208000000
C    -0.714000000     4.568000000     1.110000000
H    -0.250000000     4.904000000     0.186000000
C     0.152000000     4.105000000     2.097000000
O     1.464000000     4.215000000     1.731000000
C     2.280000000     3.056000000     1.576000000
H     1.509000000     2.355000000     1.224000000
C     3.346000000     3.169000000     0.529000000
C     4.675000000     2.796000000     0.755000000
H     4.917000000     2.284000000     1.682000000
C     3.001000000     3.668000000    -0.707000000
H     1.974000000     3.963000000    -0.907000000
C     3.936000000     3.677000000    -1.803000000
O     3.623000000     3.889000000    -3.082000000
C     5.205000000     3.175000000    -1.568000000
H     5.966000000     3.162000000    -2.344000000
C     5.592000000     2.703000000    -0.306000000
O     6.846000000     2.223000000    -0.112000000
C     6.991000000     1.117000000     0.635000000
C     6.547000000    -0.131000000     0.111000000
H     6.074000000    -0.199000000    -0.865000000
C     7.669000000     1.190000000     1.873000000
H     8.119000000     2.126000000     2.192000000
C     7.769000000     0.048000000     2.656000000
H     8.246000000     0.145000000     3.628000000
C     7.391000000    -1.176000000     2.137000000
H     7.485000000    -2.088000000     2.722000000
C     6.792000000    -1.239000000     0.879000000
O     6.407000000    -2.469000000     0.365000000
C     5.125000000    -2.969000000     0.401000000
C     4.686000000    -3.784000000    -0.664000000
H     5.306000000    -4.051000000    -1.516000000
C     3.366000000    -4.251000000    -0.605000000
O     2.910000000    -5.033000000    -1.642000000
C     1.849000000    -5.840000000    -1.619000000
C     0.668000000    -5.462000000    -2.258000000
H     0.560000000    -4.456000000    -2.655000000
C     2.020000000    -7.162000000    -1.179000000
H     2.923000000    -7.440000000    -0.641000000
C     0.985000000    -8.134000000    -1.327000000
H     1.116000000    -9.152000000    -0.970000000
C    -0.173000000    -7.733000000    -1.996000000
H    -1.011000000    -8.402000000    -2.175000000
C    -0.340000000    -6.397000000    -2.343000000
O    -1.516000000    -6.016000000    -3.022000000
C    -2.394000000    -5.025000000    -2.645000000
C    -3.267000000    -4.554000000    -3.623000000
H    -3.354000000    -5.000000000    -4.611000000
C    -4.126000000    -3.505000000    -3.281000000
O    -5.099000000    -3.067000000    -4.130000000
C    -5.269000000    -1.817000000    -4.528000000
C    -4.290000000    -0.834000000    -4.604000000
H    -3.225000000    -1.024000000    -4.502000000
C    -6.569000000    -1.404000000    -4.820000000
H    -7.318000000    -2.174000000    -4.982000000
C    -6.811000000    -0.060000000    -5.056000000
H    -7.850000000     0.188000000    -5.262000000
C    -5.836000000     0.888000000    -5.271000000
H    -6.002000000     1.928000000    -5.541000000
C    -4.544000000     0.443000000    -5.048000000
O    -3.496000000     1.317000000    -5.258000000
C    -3.078000000     2.296000000    -4.377000000
C    -2.104000000     3.109000000    -4.877000000
H    -1.767000000     3.078000000    -5.910000000
C    -1.563000000     4.081000000    -4.066000000
O    -0.770000000     5.022000000    -4.618000000
C     0.451000000     5.394000000    -4.131000000
C     0.658000000     6.766000000    -3.906000000
H    -0.148000000     7.471000000    -4.091000000
C     1.914000000     7.186000000    -3.532000000
H     2.150000000     8.226000000    -3.325000000
C     2.909000000     6.240000000    -3.258000000
H     3.853000000     6.593000000    -2.849000000
C     2.731000000     4.886000000    -3.450000000
C     1.462000000     4.478000000    -3.917000000
H     1.266000000     3.453000000    -4.221000000
C     0.149000000    -1.375000000    -2.382000000
H    -0.451000000    -1.791000000    -3.187000000
C    -0.649000000    -0.859000000    -1.280000000
H    -1.734000000    -0.917000000    -1.309000000
C     0.009000000    -0.315000000    -0.180000000
C    -0.810000000     0.202000000     1.005000000
H    -0.592000000    -0.382000000     1.902000000
H    -0.640000000     1.270000000     1.156000000
H    -1.882000000     0.066000000     0.848000000
C     1.364000000    -0.193000000    -0.173000000
H     1.953000000     0.129000000     0.682000000
C     2.158000000    -0.745000000    -1.148000000
H     3.234000000    -0.671000000    -1.011000000
C     1.526000000    -1.326000000    -2.330000000
C     2.441000000    -2.060000000    -3.314000000
O     3.636000000    -1.879000000    -3.158000000
O     2.065000000    -2.596000000    -4.377000000
O     6.317000000    -0.421000000    -8.004000000
H     5.959000000     0.162000000    -8.673000000
H     5.842000000    -1.243000000    -8.123000000
O     8.460000000    -3.610000000    -5.836000000
H     7.518000000    -3.559000000    -5.674000000
H     8.713000000    -4.472000000    -5.506000000
O    -0.555000000    -3.262000000    -4.952000000
H     0.320000000    -3.086000000    -4.608000000
H    -0.675000000    -2.613000000    -5.646000000
O     7.637000000    -0.994000000    -2.954000000
H     8.377000000    -0.431000000    -3.180000000
H     6.886000000    -0.401000000    -2.922000000
O     1.612000000     0.732000000    -4.654000000
H     1.642000000     0.628000000    -3.703000000
H     1.021000000     1.472000000    -4.796000000
O     2.035000000    -0.004000000    -9.079000000
H     2.768000000    -0.125000000    -9.683000000
H     2.254000000    -0.551000000    -8.325000000
O     5.902000000    -5.309000000    -5.662000000
H     5.692000000    -4.639000000    -5.011000000
H     5.086000000    -5.796000000    -5.776000000
O     2.472000000    -5.947000000    -6.954000000
H     2.330000000    -6.871000000    -6.748000000
H     2.459000000    -5.508000000    -6.103000000
O     3.780000000    -5.138000000    -8.932000000
H     3.912000000    -5.999000000    -9.329000000
H     3.134000000    -5.289000000    -8.242000000
O    -1.120000000    -5.582000000    -6.177000000
H    -0.535000000    -6.097000000    -5.621000000
H    -1.049000000    -4.689000000    -5.839000000
O     5.902000000    -3.096000000    -4.128000000
H     6.562000000    -2.478000000    -3.816000000
H     5.087000000    -2.803000000    -3.720000000
O     2.297000000     3.276000000    -7.276000000
H     2.921000000     2.600000000    -7.009000000
H     2.677000000     4.093000000    -6.953000000
O     4.538000000    -7.777000000    -4.441000000
H     4.520000000    -8.392000000    -5.174000000
H     3.629000000    -7.729000000    -4.146000000
O     4.570000000     1.450000000    -6.684000000
H     5.392000000     0.973000000    -6.570000000
H     3.902000000     0.767000000    -6.738000000
O    -0.124000000    -1.658000000    -7.008000000
H    -0.373000000    -0.740000000    -7.120000000
H     0.823000000    -1.634000000    -6.874000000
O     2.980000000    -5.007000000    -4.502000000
H     3.249000000    -5.117000000    -3.590000000
H     2.650000000    -4.109000000    -4.547000000
O     2.632000000    -1.707000000    -6.989000000
H     2.521000000    -1.741000000    -6.038000000
H     3.139000000    -2.492000000    -7.199000000
O     6.007000000    -7.133000000    -1.903000000
H     6.822000000    -6.630000000    -1.895000000
H     5.714000000    -7.100000000    -2.814000000
O     5.128000000     0.313000000    -3.231000000
H     4.539000000     1.026000000    -2.985000000
H     4.546000000    -0.405000000    -3.478000000
