218
-1489.39517
C     2.469000000    -3.371000000     0.941000000
H     1.460000000    -3.769000000     0.875000000
C     2.888000000    -2.559000000     1.992000000
C     4.205000000    -2.060000000     1.947000000
H     4.544000000    -1.462000000     2.789000000
C     1.918000000    -2.087000000     3.087000000
O     1.089000000    -3.159000000     3.695000000
H     1.364000000    -1.345000000     2.493000000
O     2.491000000    -1.316000000     4.111000000
C     1.943000000    -0.100000000     4.397000000
C     2.672000000     0.999000000     3.959000000
H     3.691000000     0.811000000     3.631000000
C     2.091000000     2.262000000     3.857000000
O     2.659000000     3.300000000     3.104000000
C     0.739000000     2.451000000     4.324000000
C    -0.019000000     3.731000000     4.211000000
H    -0.771000000     3.808000000     4.999000000
C    -0.762000000     3.813000000     2.914000000
C    -2.116000000     3.413000000     2.822000000
H    -2.665000000     3.215000000     3.739000000
H     0.677000000     4.569000000     4.279000000
C     0.096000000     1.344000000     4.900000000
H    -0.937000000     1.446000000     5.223000000
C     0.646000000     0.103000000     4.908000000
C    -0.198000000    -1.075000000     5.415000000
H    -0.880000000    -0.789000000     6.219000000
H     0.568000000    -1.678000000     5.907000000
C    -0.914000000    -1.841000000     4.320000000
C    -2.267000000    -1.516000000     4.154000000
H    -2.743000000    -0.839000000     4.859000000
C    -0.328000000    -2.882000000     3.591000000
C    -1.045000000    -3.546000000     2.589000000
H    -0.573000000    -4.313000000     1.980000000
C    -2.360000000    -3.179000000     2.354000000
O    -2.947000000    -3.780000000     1.312000000
C    -3.084000000    -3.027000000     0.079000000
C    -2.882000000    -3.798000000    -1.145000000
C    -3.521000000    -3.462000000    -2.357000000
H    -4.222000000    -2.632000000    -2.307000000
C    -2.039000000    -4.931000000    -1.234000000
H    -1.377000000    -5.171000000    -0.406000000
O    -4.328000000    -2.392000000     0.109000000
H    -2.281000000    -2.281000000     0.169000000
C    -2.981000000    -2.230000000     3.156000000
C    -4.348000000    -1.813000000     2.910000000
H    -4.942000000    -1.550000000     3.787000000
H    -4.877000000    -2.723000000     2.618000000
C    -4.390000000    -0.703000000     1.855000000
C    -4.375000000     0.646000000     2.238000000
H    -4.124000000     0.960000000     3.248000000
C    -4.549000000    -1.061000000     0.518000000
C    -4.680000000    -0.068000000    -0.412000000
H    -4.757000000    -0.359000000    -1.457000000
C    -4.637000000     1.284000000    -0.118000000
O    -4.377000000     2.141000000    -1.139000000
C    -2.950000000     2.517000000    -1.431000000
C    -2.608000000     2.451000000    -2.910000000
C    -3.405000000     1.652000000    -3.784000000
H    -4.248000000     1.091000000    -3.388000000
C    -1.393000000     2.982000000    -3.362000000
H    -0.817000000     3.637000000    -2.713000000
O    -2.723000000     3.778000000    -0.825000000
H    -2.380000000     1.750000000    -0.886000000
C    -4.430000000     1.615000000     1.270000000
C    -4.240000000     3.043000000     1.628000000
H    -4.646000000     3.153000000     2.636000000
H    -4.797000000     3.732000000     0.991000000
C    -2.792000000     3.451000000     1.600000000
C    -2.140000000     3.862000000     0.437000000
C    -0.869000000     4.340000000     0.547000000
H    -0.333000000     4.826000000    -0.264000000
C    -0.144000000     4.150000000     1.737000000
O     1.214000000     4.529000000     1.702000000
C     2.169000000     3.476000000     1.769000000
H     1.627000000     2.585000000     1.420000000
C     3.375000000     3.768000000     0.856000000
C     4.649000000     3.283000000     1.213000000
H     4.717000000     2.691000000     2.123000000
C     3.151000000     4.175000000    -0.468000000
H     2.249000000     4.696000000    -0.777000000
C     4.211000000     4.151000000    -1.393000000
O     4.220000000     4.540000000    -2.686000000
C     5.476000000     3.795000000    -0.940000000
H     6.290000000     3.707000000    -1.655000000
C     5.663000000     3.318000000     0.304000000
O     6.962000000     2.897000000     0.603000000
C     7.174000000     1.716000000     1.255000000
C     6.570000000     0.606000000     0.699000000
H     6.122000000     0.750000000    -0.280000000
C     7.760000000     1.650000000     2.548000000
H     8.200000000     2.536000000     2.999000000
C     7.788000000     0.486000000     3.275000000
H     8.132000000     0.442000000     4.305000000
C     7.326000000    -0.667000000     2.637000000
H     7.403000000    -1.623000000     3.149000000
C     6.719000000    -0.622000000     1.362000000
O     6.312000000    -1.720000000     0.693000000
C     4.998000000    -2.218000000     0.796000000
C     4.545000000    -2.959000000    -0.308000000
H     5.096000000    -3.096000000    -1.234000000
C     3.266000000    -3.541000000    -0.189000000
O     2.771000000    -4.302000000    -1.238000000
C     1.980000000    -5.412000000    -0.973000000
C     0.999000000    -5.665000000    -1.841000000
H     0.799000000    -4.968000000    -2.650000000
C     2.118000000    -6.249000000     0.123000000
H     2.942000000    -6.039000000     0.800000000
C     1.186000000    -7.292000000     0.351000000
H     1.372000000    -7.972000000     1.179000000
C     0.171000000    -7.585000000    -0.601000000
H    -0.566000000    -8.347000000    -0.357000000
C     0.083000000    -6.731000000    -1.689000000
O    -0.996000000    -6.767000000    -2.489000000
C    -1.898000000    -5.701000000    -2.418000000
C    -2.559000000    -5.344000000    -3.569000000
H    -2.430000000    -5.927000000    -4.477000000
C    -3.408000000    -4.271000000    -3.501000000
O    -4.002000000    -3.855000000    -4.695000000
C    -4.571000000    -2.646000000    -4.909000000
C    -3.799000000    -1.648000000    -5.414000000
H    -2.733000000    -1.800000000    -5.566000000
C    -5.966000000    -2.532000000    -4.736000000
H    -6.563000000    -3.335000000    -4.312000000
C    -6.530000000    -1.280000000    -4.943000000
H    -7.597000000    -1.102000000    -4.841000000
C    -5.740000000    -0.219000000    -5.352000000
H    -6.145000000     0.745000000    -5.649000000
C    -4.395000000    -0.429000000    -5.585000000
O    -3.544000000     0.608000000    -5.993000000
C    -2.919000000     1.403000000    -5.067000000
C    -1.659000000     1.878000000    -5.439000000
H    -1.152000000     1.558000000    -6.346000000
C    -0.960000000     2.697000000    -4.633000000
O     0.304000000     3.172000000    -5.089000000
C     0.979000000     4.185000000    -4.467000000
C     0.559000000     5.551000000    -4.504000000
H    -0.447000000     5.786000000    -4.843000000
C     1.376000000     6.536000000    -3.957000000
H     1.046000000     7.567000000    -3.861000000
C     2.619000000     6.241000000    -3.482000000
H     3.214000000     7.106000000    -3.202000000
C     3.005000000     4.910000000    -3.274000000
C     2.144000000     3.864000000    -3.780000000
H     2.496000000     2.836000000    -3.815000000
C     0.232000000    -0.362000000    -2.241000000
H    -0.355000000    -0.581000000    -3.128000000
C    -0.508000000    -0.132000000    -1.088000000
H    -1.595000000    -0.148000000    -1.113000000
C     0.114000000     0.184000000     0.123000000
C    -0.622000000     0.478000000     1.358000000
H    -0.529000000    -0.254000000     2.163000000
H    -0.127000000     1.337000000     1.815000000
H    -1.682000000     0.676000000     1.187000000
C     1.499000000     0.255000000     0.134000000
H     2.015000000     0.623000000     1.017000000
C     2.233000000    -0.092000000    -1.046000000
H     3.316000000    -0.016000000    -1.111000000
C     1.640000000    -0.358000000    -2.298000000
C     2.401000000    -0.630000000    -3.607000000
O     3.591000000    -0.412000000    -3.713000000
O     1.774000000    -1.049000000    -4.577000000
O     7.633000000    -2.609000000    -5.795000000
H     6.994000000    -2.435000000    -6.486000000
H     8.348000000    -1.998000000    -5.971000000
O    -0.146000000    -2.126000000    -5.667000000
H     0.555000000    -1.767000000    -5.122000000
H     0.109000000    -1.902000000    -6.562000000
O     7.554000000    -2.171000000    -2.807000000
H     7.567000000    -1.345000000    -3.290000000
H     8.367000000    -2.608000000    -3.059000000
O     5.909000000    -5.227000000    -2.057000000
H     5.143000000    -4.663000000    -1.944000000
H     6.161000000    -5.106000000    -2.973000000
O     7.662000000     0.385000000    -4.146000000
H     7.562000000     0.750000000    -5.025000000
H     6.906000000     0.716000000    -3.661000000
O     1.946000000     0.889000000    -6.616000000
H     1.801000000     0.063000000    -6.154000000
H     1.601000000     0.736000000    -7.495000000
O     5.190000000    -4.925000000    -6.234000000
H     5.766000000    -4.335000000    -5.747000000
H     4.917000000    -4.418000000    -6.998000000
O     2.074000000    -5.710000000    -6.824000000
H     2.578000000    -6.447000000    -6.477000000
H     2.451000000    -4.941000000    -6.396000000
O     5.422000000     2.989000000    -7.523000000
H     4.910000000     2.398000000    -6.971000000
H     5.251000000     3.860000000    -7.163000000
O     5.021000000    -2.664000000    -3.906000000
H     5.919000000    -2.568000000    -3.589000000
H     4.594000000    -1.840000000    -3.670000000
O     7.322000000     1.143000000    -6.765000000
H     6.854000000     1.868000000    -7.178000000
H     6.847000000     0.360000000    -7.044000000
O     2.403000000     3.297000000    -7.398000000
H     1.993000000     2.619000000    -6.862000000
H     2.872000000     3.848000000    -6.771000000
O     5.352000000     0.130000000    -9.063000000
H     4.681000000    -0.317000000    -8.547000000
H     4.860000000     0.691000000    -9.662000000
O    -0.745000000    -4.567000000    -6.708000000
H     0.151000000    -4.905000000    -6.719000000
H    -0.704000000    -3.797000000    -6.140000000
O     4.532000000     0.904000000    -6.021000000
H     4.582000000     0.298000000    -5.281000000
H     3.595000000     1.011000000    -6.180000000
O     0.347000000    -1.572000000    -8.371000000
H     0.130000000    -2.180000000    -9.077000000
H     0.605000000    -0.766000000    -8.819000000
O     2.587000000    -3.751000000    -5.256000000
H     3.535000000    -3.656000000    -5.166000000
H     2.226000000    -3.001000000    -4.784000000
O     3.156000000    -1.398000000    -8.624000000
H     3.518000000    -2.238000000    -8.907000000
H     2.369000000    -1.632000000    -8.131000000
O     5.471000000     1.376000000    -2.971000000
H     5.175000000     2.186000000    -3.387000000
H     4.753000000     0.759000000    -3.109000000
