218
-1454.93059
C    -4.722000000    -1.691000000    -2.418000000
H    -4.752000000    -1.210000000    -3.392000000
C    -4.592000000    -1.076000000    -1.187000000
C    -4.643000000    -1.838000000     0.006000000
H    -4.427000000    -1.447000000     0.997000000
C    -4.145000000     0.376000000    -1.103000000
O    -4.279000000     1.127000000    -2.383000000
H    -3.080000000     0.283000000    -0.844000000
O    -4.767000000     1.172000000    -0.046000000
C    -4.004000000     1.959000000     0.793000000
C    -3.765000000     1.474000000     2.099000000
H    -4.265000000     0.565000000     2.424000000
C    -2.990000000     2.272000000     2.965000000
O    -2.516000000     1.711000000     4.108000000
C    -2.443000000     3.496000000     2.542000000
C    -1.422000000     4.300000000     3.283000000
H    -1.628000000     5.355000000     3.094000000
C     0.025000000     3.777000000     2.982000000
C     0.806000000     4.372000000     2.004000000
H     0.245000000     5.152000000     1.496000000
H    -1.588000000     4.271000000     4.362000000
C    -2.756000000     3.926000000     1.247000000
H    -2.297000000     4.855000000     0.917000000
C    -3.569000000     3.171000000     0.413000000
C    -3.905000000     3.673000000    -0.989000000
H    -3.850000000     4.761000000    -1.064000000
H    -4.969000000     3.490000000    -1.153000000
C    -2.997000000     3.142000000    -2.019000000
C    -1.901000000     3.939000000    -2.388000000
H    -1.765000000     4.940000000    -1.986000000
C    -3.230000000     1.957000000    -2.655000000
C    -2.323000000     1.402000000    -3.587000000
H    -2.472000000     0.403000000    -3.990000000
C    -1.132000000     2.111000000    -3.859000000
O    -0.198000000     1.450000000    -4.629000000
C     1.065000000     1.019000000    -3.960000000
C     1.289000000    -0.437000000    -4.526000000
C     2.595000000    -0.901000000    -4.677000000
H     3.391000000    -0.215000000    -4.400000000
C     0.285000000    -1.375000000    -4.613000000
H    -0.761000000    -1.157000000    -4.414000000
O     2.049000000     1.990000000    -4.211000000
H     0.989000000     0.950000000    -2.865000000
C    -0.925000000     3.376000000    -3.257000000
C     0.256000000     4.230000000    -3.640000000
H     0.127000000     5.305000000    -3.502000000
H     0.465000000     3.991000000    -4.685000000
C     1.524000000     3.907000000    -2.823000000
C     1.722000000     4.532000000    -1.572000000
H     1.020000000     5.296000000    -1.247000000
C     2.407000000     2.894000000    -3.214000000
C     3.389000000     2.401000000    -2.332000000
H     3.970000000     1.536000000    -2.640000000
C     3.627000000     3.026000000    -1.074000000
O     4.489000000     2.449000000    -0.125000000
C     3.910000000     1.535000000     0.857000000
C     4.581000000     0.217000000     1.048000000
C     5.227000000    -0.444000000    -0.008000000
H     5.429000000     0.155000000    -0.892000000
C     4.441000000    -0.507000000     2.219000000
H     3.871000000    -0.137000000     3.068000000
O     3.758000000     2.266000000     2.114000000
H     2.916000000     1.213000000     0.515000000
C     2.757000000     4.117000000    -0.707000000
C     2.863000000     4.703000000     0.655000000
H     2.300000000     5.632000000     0.543000000
H     3.897000000     4.933000000     0.920000000
C     2.114000000     3.945000000     1.718000000
C     2.567000000     2.845000000     2.427000000
C     1.756000000     2.226000000     3.377000000
H     2.215000000     1.337000000     3.802000000
C     0.526000000     2.750000000     3.752000000
O    -0.199000000     2.024000000     4.700000000
C    -1.233000000     1.129000000     4.194000000
H    -0.996000000     0.893000000     3.146000000
C    -1.281000000    -0.190000000     4.871000000
C    -2.429000000    -0.912000000     4.992000000
H    -3.407000000    -0.485000000     4.786000000
C    -0.097000000    -0.752000000     5.319000000
H     0.814000000    -0.187000000     5.136000000
C    -0.088000000    -2.004000000     5.915000000
O     1.146000000    -2.587000000     6.254000000
C    -1.246000000    -2.834000000     5.865000000
H    -1.337000000    -3.864000000     6.199000000
C    -2.455000000    -2.236000000     5.494000000
O    -3.657000000    -2.925000000     5.506000000
C    -4.584000000    -2.895000000     4.499000000
C    -4.272000000    -3.281000000     3.216000000
H    -3.263000000    -3.653000000     3.057000000
C    -5.872000000    -2.554000000     4.861000000
H    -6.184000000    -2.389000000     5.890000000
C    -6.814000000    -2.652000000     3.800000000
H    -7.855000000    -2.503000000     4.078000000
C    -6.537000000    -3.142000000     2.516000000
H    -7.330000000    -3.171000000     1.773000000
C    -5.252000000    -3.514000000     2.266000000
O    -4.886000000    -3.999000000     1.010000000
C    -4.967000000    -3.201000000    -0.074000000
C    -5.106000000    -3.817000000    -1.347000000
H    -5.191000000    -4.895000000    -1.460000000
C    -4.933000000    -3.036000000    -2.481000000
O    -4.954000000    -3.720000000    -3.729000000
C    -3.949000000    -3.378000000    -4.634000000
C    -2.613000000    -3.673000000    -4.468000000
H    -2.249000000    -4.291000000    -3.651000000
C    -4.315000000    -2.619000000    -5.747000000
H    -5.346000000    -2.379000000    -5.996000000
C    -3.398000000    -2.268000000    -6.734000000
H    -3.719000000    -1.809000000    -7.666000000
C    -2.008000000    -2.590000000    -6.573000000
H    -1.240000000    -2.286000000    -7.280000000
C    -1.693000000    -3.342000000    -5.434000000
O    -0.407000000    -3.597000000    -5.224000000
C     0.550000000    -2.671000000    -5.006000000
C     1.870000000    -3.118000000    -5.220000000
H     2.038000000    -4.120000000    -5.606000000
C     2.904000000    -2.222000000    -5.026000000
O     4.194000000    -2.608000000    -5.112000000
C     5.198000000    -2.197000000    -4.328000000
C     5.279000000    -2.534000000    -2.949000000
H     4.521000000    -3.139000000    -2.459000000
C     6.107000000    -1.314000000    -4.867000000
H     5.933000000    -1.131000000    -5.924000000
C     7.092000000    -0.673000000    -4.139000000
H     7.761000000    -0.008000000    -4.679000000
C     7.245000000    -1.084000000    -2.799000000
H     8.079000000    -0.784000000    -2.170000000
C     6.346000000    -1.948000000    -2.160000000
O     6.509000000    -2.316000000    -0.806000000
C     5.740000000    -1.731000000     0.139000000
C     5.744000000    -2.348000000     1.377000000
H     6.356000000    -3.225000000     1.572000000
C     5.072000000    -1.678000000     2.373000000
O     5.174000000    -2.303000000     3.593000000
C     4.386000000    -1.946000000     4.676000000
C     4.993000000    -1.184000000     5.626000000
H     6.040000000    -0.949000000     5.459000000
C     4.321000000    -0.803000000     6.802000000
H     4.815000000    -0.224000000     7.577000000
C     2.943000000    -1.204000000     6.943000000
H     2.491000000    -0.919000000     7.889000000
C     2.365000000    -2.042000000     5.997000000
C     3.037000000    -2.344000000     4.787000000
H     2.542000000    -2.866000000     3.971000000
C    -0.538000000    -2.767000000     1.443000000
H    -0.351000000    -3.123000000     2.452000000
C    -0.225000000    -1.444000000     1.164000000
H     0.289000000    -0.832000000     1.900000000
C    -0.474000000    -0.906000000    -0.079000000
C     0.016000000     0.502000000    -0.304000000
H    -0.421000000     1.081000000    -1.120000000
H    -0.102000000     0.974000000     0.674000000
H     1.079000000     0.489000000    -0.556000000
C    -0.972000000    -1.768000000    -1.132000000
H    -1.044000000    -1.407000000    -2.155000000
C    -1.322000000    -3.073000000    -0.867000000
H    -1.824000000    -3.610000000    -1.668000000
C    -1.203000000    -3.556000000     0.442000000
C    -1.480000000    -5.045000000     0.619000000
O    -2.020000000    -5.705000000    -0.281000000
O    -0.942000000    -5.663000000     1.532000000
O    -3.874000000    -7.218000000    -1.448000000
H    -4.524000000    -6.839000000    -0.856000000
H    -3.081000000    -6.705000000    -1.292000000
O    -1.830000000   -10.326000000     2.630000000
H    -1.481000000    -9.619000000     2.088000000
H    -2.767000000   -10.141000000     2.691000000
O     0.643000000    -9.639000000     3.867000000
H     0.699000000    -8.692000000     3.746000000
H    -0.248000000    -9.863000000     3.597000000
O    -1.752000000    -8.146000000     0.821000000
H    -2.664000000    -7.855000000     0.819000000
H    -1.272000000    -7.424000000     1.227000000
O    -6.027000000    -6.983000000     0.553000000
H    -6.233000000    -7.661000000    -0.091000000
H    -6.408000000    -6.184000000     0.190000000
O    -1.826000000    -9.130000000    -1.802000000
H    -1.056000000    -8.938000000    -2.338000000
H    -1.603000000    -8.795000000    -0.934000000
O    -1.083000000    -7.509000000    -4.706000000
H    -1.683000000    -8.255000000    -4.705000000
H    -1.056000000    -7.222000000    -3.794000000
O    -3.065000000    -9.140000000    -4.182000000
H    -3.636000000    -9.898000000    -4.055000000
H    -2.766000000    -8.914000000    -3.301000000
O    -2.427000000    -6.459000000     5.743000000
H    -1.546000000    -6.119000000     5.902000000
H    -2.383000000    -7.375000000     6.018000000
O    -0.347000000    -6.678000000    -2.204000000
H    -1.020000000    -6.579000000    -1.531000000
H     0.355000000    -6.088000000    -1.929000000
O     0.295000000    -6.404000000     3.593000000
H    -0.149000000    -6.131000000     2.790000000
H    -0.280000000    -6.104000000     4.298000000
O    -5.411000000    -9.620000000    -1.774000000
H    -4.650000000    -9.070000000    -1.588000000
H    -5.629000000    -9.427000000    -2.686000000
O     2.005000000    -5.963000000     0.832000000
H     1.072000000    -6.022000000     1.039000000
H     2.337000000    -6.850000000     0.971000000
O     2.121000000    -2.440000000    -0.992000000
H     1.711000000    -2.204000000    -0.161000000
H     1.889000000    -1.725000000    -1.585000000
O     4.653000000    -6.316000000     1.440000000
H     3.846000000    -6.005000000     1.032000000
H     5.286000000    -6.353000000     0.723000000
O     1.869000000    -5.056000000    -1.804000000
H     1.816000000    -5.675000000    -1.076000000
H     2.093000000    -4.221000000    -1.393000000
O     2.547000000    -8.559000000     0.178000000
H     2.899000000    -9.426000000     0.376000000
H     2.348000000    -8.589000000    -0.758000000
O    -4.439000000    -8.755000000     2.418000000
H    -4.858000000    -8.820000000     3.276000000
H    -4.956000000    -8.101000000     1.948000000
O     3.122000000    -6.512000000     3.609000000
H     3.605000000    -6.303000000     2.810000000
H     2.218000000    -6.263000000     3.415000000
