218
-1483.47760
C     2.006000000    -4.899000000     1.238000000
H     0.936000000    -5.086000000     1.251000000
C     2.561000000    -3.977000000     2.052000000
C     3.916000000    -3.701000000     1.938000000
H     4.369000000    -2.867000000     2.469000000
C     1.660000000    -3.064000000     2.785000000
O     0.479000000    -3.745000000     3.322000000
H     1.371000000    -2.263000000     2.088000000
O     2.413000000    -2.339000000     3.831000000
C     2.074000000    -1.051000000     3.929000000
C     2.876000000    -0.096000000     3.294000000
H     3.767000000    -0.375000000     2.737000000
C     2.631000000     1.233000000     3.577000000
O     3.469000000     2.142000000     2.952000000
C     1.532000000     1.651000000     4.369000000
C     1.189000000     3.092000000     4.425000000
H     0.628000000     3.398000000     5.310000000
C     0.386000000     3.398000000     3.215000000
C    -1.000000000     3.510000000     3.336000000
H    -1.498000000     3.107000000     4.213000000
H     2.124000000     3.655000000     4.461000000
C     0.718000000     0.721000000     4.931000000
H    -0.110000000     0.975000000     5.588000000
C     0.985000000    -0.668000000     4.679000000
C     0.045000000    -1.633000000     5.347000000
H    -0.417000000    -1.226000000     6.249000000
H     0.653000000    -2.485000000     5.659000000
C    -1.002000000    -2.042000000     4.279000000
C    -2.250000000    -1.374000000     4.161000000
H    -2.572000000    -0.618000000     4.873000000
C    -0.759000000    -3.110000000     3.346000000
C    -1.656000000    -3.467000000     2.402000000
H    -1.368000000    -4.224000000     1.677000000
C    -2.870000000    -2.717000000     2.246000000
O    -3.637000000    -2.893000000     1.193000000
C    -3.772000000    -1.878000000     0.149000000
C    -3.602000000    -2.488000000    -1.230000000
C    -4.338000000    -2.092000000    -2.290000000
H    -5.171000000    -1.416000000    -2.115000000
C    -2.544000000    -3.410000000    -1.437000000
H    -1.957000000    -3.778000000    -0.599000000
O    -5.051000000    -1.134000000     0.334000000
H    -2.936000000    -1.185000000     0.324000000
C    -3.214000000    -1.698000000     3.203000000
C    -4.544000000    -0.868000000     3.160000000
H    -4.807000000    -0.469000000     4.142000000
H    -5.462000000    -1.408000000     2.919000000
C    -4.508000000     0.314000000     2.214000000
C    -4.050000000     1.574000000     2.556000000
H    -3.761000000     1.691000000     3.597000000
C    -4.718000000     0.157000000     0.848000000
C    -4.580000000     1.214000000    -0.092000000
H    -4.902000000     1.008000000    -1.109000000
C    -4.179000000     2.463000000     0.324000000
O    -3.870000000     3.406000000    -0.613000000
C    -2.428000000     3.593000000    -0.930000000
C    -2.304000000     3.771000000    -2.409000000
C    -3.122000000     2.973000000    -3.264000000
H    -3.948000000     2.361000000    -2.912000000
C    -1.117000000     4.340000000    -2.945000000
H    -0.354000000     4.775000000    -2.304000000
O    -1.958000000     4.611000000    -0.107000000
H    -1.942000000     2.624000000    -0.741000000
C    -3.825000000     2.637000000     1.688000000
C    -3.298000000     3.928000000     2.329000000
H    -3.576000000     4.062000000     3.376000000
H    -3.701000000     4.848000000     1.899000000
C    -1.824000000     3.952000000     2.240000000
C    -1.184000000     4.342000000     1.032000000
C     0.202000000     4.224000000     0.944000000
H     0.788000000     4.487000000     0.068000000
C     0.945000000     3.735000000     1.990000000
O     2.287000000     3.815000000     1.789000000
C     3.067000000     2.608000000     1.695000000
H     2.297000000     1.857000000     1.460000000
C     4.005000000     2.432000000     0.479000000
C     4.981000000     1.405000000     0.491000000
H     5.284000000     0.892000000     1.400000000
C     3.769000000     3.189000000    -0.688000000
H     2.960000000     3.910000000    -0.773000000
C     4.472000000     2.900000000    -1.895000000
O     4.310000000     3.542000000    -3.126000000
C     5.415000000     1.854000000    -1.880000000
H     6.068000000     1.619000000    -2.716000000
C     5.643000000     1.149000000    -0.732000000
O     6.739000000     0.299000000    -0.702000000
C     6.888000000    -0.713000000     0.234000000
C     6.300000000    -1.949000000     0.138000000
H     5.622000000    -2.136000000    -0.691000000
C     7.723000000    -0.431000000     1.325000000
H     8.291000000     0.474000000     1.521000000
C     7.961000000    -1.411000000     2.297000000
H     8.505000000    -1.097000000     3.184000000
C     7.380000000    -2.648000000     2.188000000
H     7.482000000    -3.440000000     2.926000000
C     6.604000000    -2.944000000     1.062000000
O     6.062000000    -4.254000000     0.915000000
C     4.687000000    -4.513000000     1.144000000
C     4.107000000    -5.491000000     0.386000000
H     4.770000000    -6.093000000    -0.230000000
C     2.772000000    -5.687000000     0.387000000
O     2.263000000    -6.615000000    -0.492000000
C     0.893000000    -6.640000000    -0.878000000
C     0.478000000    -5.871000000    -1.897000000
H     1.171000000    -5.244000000    -2.452000000
C     0.035000000    -7.470000000    -0.138000000
H     0.519000000    -7.990000000     0.685000000
C    -1.329000000    -7.526000000    -0.450000000
H    -1.975000000    -8.058000000     0.243000000
C    -1.786000000    -6.658000000    -1.430000000
H    -2.860000000    -6.628000000    -1.597000000
C    -0.904000000    -5.885000000    -2.183000000
O    -1.297000000    -4.847000000    -2.981000000
C    -2.358000000    -3.956000000    -2.708000000
C    -3.051000000    -3.510000000    -3.811000000
H    -2.924000000    -4.030000000    -4.757000000
C    -4.078000000    -2.618000000    -3.581000000
O    -4.887000000    -2.203000000    -4.618000000
C    -5.322000000    -0.905000000    -4.842000000
C    -4.364000000     0.004000000    -5.114000000
H    -3.338000000    -0.336000000    -5.228000000
C    -6.658000000    -0.488000000    -4.655000000
H    -7.489000000    -1.118000000    -4.350000000
C    -6.993000000     0.876000000    -4.814000000
H    -8.016000000     1.186000000    -4.615000000
C    -5.969000000     1.810000000    -5.046000000
H    -6.294000000     2.840000000    -5.172000000
C    -4.644000000     1.394000000    -5.240000000
O    -3.646000000     2.237000000    -5.550000000
C    -2.888000000     2.948000000    -4.650000000
C    -1.790000000     3.606000000    -5.175000000
H    -1.750000000     3.669000000    -6.259000000
C    -0.926000000     4.295000000    -4.348000000
O     0.130000000     4.937000000    -4.842000000
C     1.286000000     5.237000000    -4.140000000
C     1.683000000     6.540000000    -3.874000000
H     0.875000000     7.255000000    -4.007000000
C     2.994000000     6.818000000    -3.568000000
H     3.347000000     7.832000000    -3.402000000
C     3.907000000     5.822000000    -3.292000000
H     4.936000000     5.957000000    -2.971000000
C     3.466000000     4.535000000    -3.355000000
C     2.175000000     4.254000000    -3.830000000
H     1.832000000     3.224000000    -3.885000000
C    -0.815000000    -0.801000000    -2.449000000
H    -1.569000000    -0.975000000    -3.213000000
C    -1.147000000    -0.236000000    -1.249000000
H    -2.164000000     0.106000000    -1.073000000
C    -0.145000000    -0.035000000    -0.252000000
C    -0.517000000     0.463000000     1.153000000
H    -1.341000000     1.179000000     1.166000000
H    -0.767000000    -0.372000000     1.811000000
H     0.378000000     0.970000000     1.519000000
C     1.130000000    -0.493000000    -0.535000000
H     1.837000000    -0.496000000     0.291000000
C     1.501000000    -0.931000000    -1.805000000
H     2.533000000    -1.241000000    -1.950000000
C     0.525000000    -1.004000000    -2.806000000
C     0.810000000    -1.565000000    -4.179000000
O     1.980000000    -1.741000000    -4.613000000
O    -0.107000000    -1.848000000    -4.904000000
O     3.902000000    -3.433000000    -3.862000000
H     3.367000000    -4.226000000    -3.893000000
H     3.327000000    -2.742000000    -4.190000000
O     0.046000000    -4.560000000    -5.339000000
H    -0.292000000    -3.671000000    -5.446000000
H    -0.683000000    -5.050000000    -4.959000000
O     5.660000000    -2.685000000    -7.206000000
H     4.759000000    -2.848000000    -7.485000000
H     5.657000000    -1.777000000    -6.904000000
O     0.553000000    -7.905000000    -5.900000000
H    -0.338000000    -8.178000000    -5.680000000
H     0.689000000    -7.101000000    -5.399000000
O     5.884000000    -1.484000000    -3.968000000
H     5.260000000    -2.195000000    -3.826000000
H     5.558000000    -1.031000000    -4.745000000
O     3.671000000     0.332000000    -8.247000000
H     3.918000000     1.192000000    -8.585000000
H     2.817000000     0.156000000    -8.642000000
O    -0.624000000     0.562000000    -6.363000000
H    -0.384000000    -0.102000000    -5.717000000
H    -1.043000000     1.254000000    -5.851000000
O     5.641000000    -0.120000000    -6.570000000
H     6.283000000     0.518000000    -6.883000000
H     4.842000000     0.088000000    -7.054000000
O    -0.109000000    -5.017000000    -8.447000000
H    -0.120000000    -4.255000000    -7.867000000
H     0.812000000    -5.275000000    -8.486000000
O     2.389000000    -5.685000000    -4.478000000
H     1.752000000    -5.110000000    -4.904000000
H     3.149000000    -5.674000000    -5.060000000
O    -2.044000000    -6.106000000    -6.886000000
H    -2.735000000    -5.545000000    -7.239000000
H    -1.272000000    -5.895000000    -7.410000000
O     6.348000000    -4.225000000    -2.528000000
H     5.419000000    -4.127000000    -2.740000000
H     6.797000000    -3.648000000    -3.146000000
O    -0.023000000    -2.188000000    -7.443000000
H    -0.746000000    -1.581000000    -7.604000000
H     0.031000000    -2.249000000    -6.490000000
O     0.730000000     1.039000000    -8.696000000
H     0.231000000     0.848000000    -7.902000000
H     0.105000000     1.476000000    -9.274000000
O     1.519000000     3.284000000    -7.273000000
H     1.292000000     2.494000000    -7.765000000
H     1.735000000     2.966000000    -6.396000000
O    -2.643000000    -1.824000000    -8.022000000
H    -2.725000000    -2.770000000    -7.902000000
H    -2.316000000    -1.723000000    -8.916000000
O     2.569000000    -5.470000000    -8.642000000
H     3.033000000    -5.322000000    -9.466000000
H     2.755000000    -4.689000000    -8.120000000
O     2.691000000    -2.877000000    -7.099000000
H     1.859000000    -2.666000000    -7.522000000
H     2.556000000    -2.649000000    -6.179000000
O     2.654000000     1.115000000    -5.609000000
H     3.270000000     1.221000000    -6.334000000
H     2.404000000     0.191000000    -5.641000000
