218
-1477.64452
C     2.658000000    -4.276000000     1.567000000
H     1.742000000    -4.585000000     2.064000000
C     3.152000000    -3.045000000     1.903000000
C     4.359000000    -2.649000000     1.283000000
H     4.718000000    -1.632000000     1.419000000
C     2.404000000    -2.047000000     2.787000000
O     1.672000000    -2.793000000     3.800000000
H     1.761000000    -1.583000000     2.025000000
O     3.332000000    -1.065000000     3.334000000
C     2.893000000     0.233000000     3.345000000
C     3.456000000     1.148000000     2.453000000
H     4.164000000     0.813000000     1.699000000
C     2.956000000     2.413000000     2.422000000
O     3.468000000     3.132000000     1.395000000
C     2.005000000     2.925000000     3.215000000
C     1.545000000     4.386000000     3.119000000
H     1.238000000     4.758000000     4.098000000
C     0.357000000     4.695000000     2.157000000
C    -0.987000000     4.466000000     2.536000000
H    -1.156000000     4.392000000     3.607000000
H     2.417000000     4.943000000     2.769000000
C     1.407000000     2.052000000     4.136000000
H     0.564000000     2.409000000     4.722000000
C     1.862000000     0.713000000     4.205000000
C     1.338000000    -0.260000000     5.237000000
H     0.914000000     0.293000000     6.077000000
H     2.161000000    -0.898000000     5.565000000
C     0.183000000    -1.060000000     4.616000000
C    -1.173000000    -0.590000000     4.817000000
H    -1.465000000     0.199000000     5.506000000
C     0.405000000    -2.204000000     3.932000000
C    -0.639000000    -2.874000000     3.302000000
H    -0.433000000    -3.726000000     2.658000000
C    -1.909000000    -2.313000000     3.317000000
O    -2.911000000    -2.938000000     2.701000000
C    -3.053000000    -2.412000000     1.339000000
C    -3.127000000    -3.471000000     0.317000000
C    -3.717000000    -3.246000000    -0.945000000
H    -4.220000000    -2.289000000    -1.058000000
C    -2.489000000    -4.727000000     0.542000000
H    -2.028000000    -4.942000000     1.502000000
O    -4.251000000    -1.626000000     1.301000000
H    -2.145000000    -1.801000000     1.234000000
C    -2.221000000    -1.197000000     4.109000000
C    -3.684000000    -0.592000000     4.212000000
H    -3.737000000    -0.061000000     5.165000000
H    -4.391000000    -1.424000000     4.256000000
C    -3.929000000     0.249000000     2.932000000
C    -3.703000000     1.649000000     3.142000000
H    -3.404000000     2.057000000     4.104000000
C    -4.163000000    -0.235000000     1.634000000
C    -4.214000000     0.643000000     0.598000000
H    -4.344000000     0.296000000    -0.424000000
C    -4.114000000     2.024000000     0.762000000
O    -4.237000000     2.717000000    -0.390000000
C    -3.029000000     3.082000000    -1.054000000
C    -3.265000000     2.824000000    -2.538000000
C    -4.252000000     1.949000000    -3.061000000
H    -5.007000000     1.487000000    -2.431000000
C    -2.245000000     3.209000000    -3.376000000
H    -1.506000000     3.925000000    -3.026000000
O    -2.696000000     4.455000000    -0.761000000
H    -2.234000000     2.382000000    -0.760000000
C    -3.849000000     2.518000000     2.058000000
C    -3.481000000     3.999000000     2.111000000
H    -3.633000000     4.300000000     3.150000000
H    -4.196000000     4.602000000     1.546000000
C    -2.076000000     4.409000000     1.634000000
C    -1.792000000     4.687000000     0.269000000
C    -0.460000000     4.843000000    -0.156000000
H    -0.197000000     4.916000000    -1.209000000
C     0.616000000     4.817000000     0.766000000
O     1.927000000     4.700000000     0.241000000
C     2.607000000     3.364000000     0.193000000
H     1.836000000     2.580000000     0.160000000
C     3.525000000     3.190000000    -1.061000000
C     4.388000000     2.096000000    -1.200000000
H     4.501000000     1.406000000    -0.368000000
C     3.254000000     3.993000000    -2.144000000
H     2.664000000     4.902000000    -2.063000000
C     3.726000000     3.674000000    -3.383000000
O     3.296000000     4.384000000    -4.477000000
C     4.582000000     2.601000000    -3.558000000
H     5.080000000     2.453000000    -4.513000000
C     4.938000000     1.849000000    -2.431000000
O     5.835000000     0.816000000    -2.622000000
C     6.462000000     0.115000000    -1.617000000
C     6.137000000    -1.205000000    -1.450000000
H     5.417000000    -1.727000000    -2.075000000
C     7.403000000     0.767000000    -0.739000000
H     7.426000000     1.849000000    -0.844000000
C     8.006000000     0.074000000     0.310000000
H     8.695000000     0.650000000     0.923000000
C     7.666000000    -1.274000000     0.460000000
H     8.150000000    -1.757000000     1.304000000
C     6.756000000    -1.907000000    -0.388000000
O     6.342000000    -3.180000000    -0.110000000
C     5.083000000    -3.461000000     0.427000000
C     4.603000000    -4.718000000     0.140000000
H     5.143000000    -5.390000000    -0.523000000
C     3.341000000    -5.096000000     0.699000000
O     2.998000000    -6.328000000     0.405000000
C     1.785000000    -6.824000000     0.796000000
C     0.646000000    -6.396000000     0.123000000
H     0.724000000    -5.681000000    -0.692000000
C     1.693000000    -7.734000000     1.806000000
H     2.572000000    -7.960000000     2.403000000
C     0.430000000    -8.227000000     2.226000000
H     0.240000000    -8.942000000     3.022000000
C    -0.683000000    -7.872000000     1.459000000
H    -1.677000000    -8.303000000     1.540000000
C    -0.610000000    -6.905000000     0.428000000
O    -1.624000000    -6.723000000    -0.421000000
C    -2.368000000    -5.624000000    -0.524000000
C    -3.014000000    -5.420000000    -1.749000000
H    -2.940000000    -6.140000000    -2.560000000
C    -3.655000000    -4.228000000    -1.944000000
O    -4.142000000    -3.923000000    -3.217000000
C    -4.984000000    -2.831000000    -3.393000000
C    -4.651000000    -1.680000000    -4.177000000
H    -3.717000000    -1.692000000    -4.733000000
C    -6.240000000    -2.902000000    -2.735000000
H    -6.424000000    -3.786000000    -2.130000000
C    -7.142000000    -1.812000000    -2.827000000
H    -8.127000000    -1.858000000    -2.369000000
C    -6.707000000    -0.663000000    -3.480000000
H    -7.316000000     0.237000000    -3.521000000
C    -5.421000000    -0.558000000    -4.154000000
O    -5.047000000     0.573000000    -4.833000000
C    -4.232000000     1.593000000    -4.371000000
C    -3.276000000     2.102000000    -5.253000000
H    -3.292000000     1.886000000    -6.318000000
C    -2.267000000     2.942000000    -4.719000000
O    -1.287000000     3.503000000    -5.564000000
C    -0.286000000     4.336000000    -5.203000000
C    -0.495000000     5.727000000    -5.180000000
H    -1.482000000     6.162000000    -5.322000000
C     0.499000000     6.639000000    -4.832000000
H     0.252000000     7.694000000    -4.918000000
C     1.750000000     6.142000000    -4.655000000
H     2.583000000     6.828000000    -4.520000000
C     1.975000000     4.792000000    -4.624000000
C     1.003000000     3.872000000    -4.910000000
H     1.189000000     2.801000000    -4.876000000
C    -0.831000000    -1.962000000    -2.010000000
H    -1.634000000    -2.428000000    -2.574000000
C    -1.080000000    -0.785000000    -1.227000000
H    -2.067000000    -0.331000000    -1.201000000
C    -0.068000000    -0.158000000    -0.458000000
C    -0.352000000     0.967000000     0.481000000
H    -0.050000000     1.923000000     0.046000000
H    -1.380000000     1.029000000     0.843000000
H     0.187000000     0.830000000     1.421000000
C     1.233000000    -0.631000000    -0.626000000
H     2.051000000    -0.156000000    -0.090000000
C     1.577000000    -1.733000000    -1.499000000
H     2.577000000    -2.149000000    -1.582000000
C     0.497000000    -2.448000000    -2.130000000
C     0.795000000    -3.756000000    -2.948000000
O     1.839000000    -4.297000000    -2.722000000
O    -0.083000000    -4.236000000    -3.680000000
O     6.430000000    -5.191000000    -3.735000000
H     6.728000000    -5.537000000    -4.576000000
H     6.811000000    -4.314000000    -3.688000000
O    -2.210000000    -9.142000000    -2.536000000
H    -1.421000000    -8.931000000    -2.038000000
H    -2.190000000    -8.544000000    -3.282000000
O    -1.378000000    -4.479000000    -5.771000000
H    -0.909000000    -4.500000000    -4.937000000
H    -2.253000000    -4.807000000    -5.562000000
O     0.624000000    -6.103000000    -8.121000000
H     1.129000000    -6.556000000    -7.446000000
H     1.138000000    -5.321000000    -8.320000000
O     3.603000000    -0.973000000    -3.970000000
H     2.715000000    -0.623000000    -3.888000000
H     4.095000000    -0.276000000    -4.403000000
O     0.759000000    -9.562000000    -4.663000000
H     0.989000000   -10.013000000    -5.475000000
H     1.207000000    -8.718000000    -4.723000000
O     5.323000000    -8.067000000    -1.575000000
H     5.570000000    -8.044000000    -0.650000000
H     4.820000000    -7.264000000    -1.709000000
O     1.559000000    -6.884000000    -4.124000000
H     2.472000000    -6.954000000    -3.845000000
H     1.349000000    -5.955000000    -4.024000000
O    -3.940000000    -5.447000000    -5.900000000
H    -4.028000000    -6.165000000    -6.527000000
H    -4.145000000    -5.842000000    -5.053000000
O     3.713000000    -6.318000000    -2.867000000
H     3.172000000    -5.653000000    -2.441000000
H     4.483000000    -5.840000000    -3.174000000
O     3.862000000    -3.621000000    -4.383000000
H     4.059000000    -2.744000000    -4.055000000
H     3.129000000    -3.920000000    -3.845000000
O    -1.099000000    -7.177000000    -4.168000000
H    -0.146000000    -7.175000000    -4.079000000
H    -1.313000000    -6.294000000    -4.470000000
O     1.402000000    -3.262000000    -6.330000000
H     1.820000000    -3.626000000    -5.549000000
H     0.490000000    -3.545000000    -6.267000000
O     2.111000000    -9.008000000    -1.669000000
H     2.924000000    -8.559000000    -1.440000000
H     1.793000000    -8.547000000    -2.445000000
O    -1.366000000    -1.801000000    -6.013000000
H    -1.649000000    -1.644000000    -6.914000000
H    -1.363000000    -2.754000000    -5.925000000
O     0.786000000    -2.398000000    -8.952000000
H     1.150000000    -2.663000000    -8.107000000
H     1.499000000    -2.540000000    -9.575000000
O     2.327000000    -0.785000000    -6.720000000
H     1.738000000    -0.351000000    -6.102000000
H     2.296000000    -1.709000000    -6.473000000
O     5.311000000    -4.038000000    -6.842000000
H     4.614000000    -4.225000000    -6.213000000
H     5.339000000    -4.811000000    -7.406000000
O     0.597000000    -0.240000000    -4.601000000
H    -0.168000000    -0.504000000    -5.111000000
H     0.558000000    -0.780000000    -3.812000000
