218
-1483.02979
C     2.024000000    -4.762000000     1.924000000
H     0.981000000    -4.916000000     2.186000000
C     2.702000000    -3.622000000     2.370000000
C     4.053000000    -3.419000000     1.857000000
H     4.708000000    -2.606000000     2.162000000
C     1.962000000    -2.565000000     3.137000000
O     0.936000000    -3.134000000     3.987000000
H     1.513000000    -1.902000000     2.383000000
O     2.906000000    -1.748000000     3.826000000
C     2.611000000    -0.371000000     3.875000000
C     3.293000000     0.450000000     2.986000000
H     4.023000000    -0.003000000     2.320000000
C     3.065000000     1.869000000     2.942000000
O     3.650000000     2.611000000     1.974000000
C     2.030000000     2.365000000     3.766000000
C     1.542000000     3.856000000     3.769000000
H     1.085000000     4.052000000     4.741000000
C     0.591000000     4.202000000     2.668000000
C    -0.796000000     4.192000000     2.837000000
H    -1.259000000     4.090000000     3.815000000
H     2.393000000     4.541000000     3.797000000
C     1.195000000     1.477000000     4.459000000
H     0.370000000     1.854000000     5.057000000
C     1.540000000     0.159000000     4.642000000
C     0.712000000    -0.712000000     5.556000000
H     0.468000000    -0.297000000     6.536000000
H     1.423000000    -1.467000000     5.897000000
C    -0.470000000    -1.315000000     4.799000000
C    -1.715000000    -0.633000000     4.731000000
H    -1.826000000     0.318000000     5.246000000
C    -0.230000000    -2.467000000     4.004000000
C    -1.237000000    -2.917000000     3.191000000
H    -1.117000000    -3.825000000     2.604000000
C    -2.477000000    -2.323000000     3.199000000
O    -3.433000000    -2.842000000     2.346000000
C    -3.551000000    -2.015000000     1.159000000
C    -3.635000000    -2.849000000    -0.097000000
C    -4.574000000    -2.577000000    -1.085000000
H    -5.322000000    -1.790000000    -1.039000000
C    -2.727000000    -3.866000000    -0.297000000
H    -1.928000000    -3.993000000     0.430000000
O    -4.686000000    -1.106000000     1.246000000
H    -2.654000000    -1.390000000     1.034000000
C    -2.707000000    -1.140000000     3.921000000
C    -4.002000000    -0.366000000     3.926000000
H    -3.982000000     0.115000000     4.907000000
H    -4.841000000    -1.064000000     3.928000000
C    -4.029000000     0.673000000     2.776000000
C    -3.674000000     2.010000000     2.948000000
H    -3.376000000     2.394000000     3.921000000
C    -4.350000000     0.210000000     1.430000000
C    -4.222000000     1.066000000     0.326000000
H    -4.494000000     0.646000000    -0.639000000
C    -3.857000000     2.359000000     0.561000000
O    -3.733000000     3.191000000    -0.556000000
C    -2.433000000     3.398000000    -1.121000000
C    -2.402000000     3.213000000    -2.609000000
C    -3.203000000     2.300000000    -3.290000000
H    -3.994000000     1.815000000    -2.724000000
C    -1.404000000     3.830000000    -3.385000000
H    -0.615000000     4.299000000    -2.803000000
O    -1.949000000     4.652000000    -0.650000000
H    -1.643000000     2.726000000    -0.756000000
C    -3.633000000     2.862000000     1.845000000
C    -3.173000000     4.296000000     1.948000000
H    -3.499000000     4.722000000     2.899000000
H    -3.696000000     4.895000000     1.199000000
C    -1.707000000     4.467000000     1.755000000
C    -1.200000000     4.592000000     0.474000000
C     0.177000000     4.574000000     0.277000000
H     0.520000000     4.707000000    -0.746000000
C     1.078000000     4.356000000     1.332000000
O     2.381000000     4.244000000     0.995000000
C     2.909000000     2.880000000     0.842000000
H     2.090000000     2.150000000     0.918000000
C     3.784000000     2.663000000    -0.400000000
C     4.437000000     1.454000000    -0.435000000
H     4.466000000     0.742000000     0.386000000
C     3.620000000     3.516000000    -1.575000000
H     2.865000000     4.298000000    -1.573000000
C     4.190000000     3.105000000    -2.756000000
O     4.133000000     3.944000000    -3.872000000
C     4.944000000     1.912000000    -2.782000000
H     5.548000000     1.619000000    -3.636000000
C     5.073000000     1.094000000    -1.641000000
O     5.518000000    -0.163000000    -1.848000000
C     6.242000000    -1.014000000    -1.006000000
C     5.627000000    -2.182000000    -0.591000000
H     4.563000000    -2.261000000    -0.802000000
C     7.549000000    -0.744000000    -0.811000000
H     8.080000000     0.140000000    -1.156000000
C     8.361000000    -1.676000000    -0.136000000
H     9.427000000    -1.524000000     0.015000000
C     7.756000000    -2.756000000     0.474000000
H     8.351000000    -3.508000000     0.986000000
C     6.400000000    -2.984000000     0.268000000
O     5.943000000    -4.254000000     0.567000000
C     4.740000000    -4.424000000     1.196000000
C     4.025000000    -5.552000000     0.818000000
H     4.474000000    -6.439000000     0.377000000
C     2.715000000    -5.730000000     1.176000000
O     2.146000000    -6.945000000     0.825000000
C     0.868000000    -6.966000000     0.393000000
C     0.273000000    -6.076000000    -0.480000000
H     0.818000000    -5.203000000    -0.830000000
C     0.107000000    -8.058000000     0.841000000
H     0.649000000    -8.716000000     1.515000000
C    -1.279000000    -8.189000000     0.496000000
H    -1.827000000    -9.039000000     0.894000000
C    -1.783000000    -7.213000000    -0.382000000
H    -2.771000000    -7.459000000    -0.764000000
C    -1.099000000    -6.218000000    -0.825000000
O    -1.599000000    -5.390000000    -1.810000000
C    -2.607000000    -4.549000000    -1.509000000
C    -3.589000000    -4.274000000    -2.512000000
H    -3.606000000    -4.725000000    -3.501000000
C    -4.487000000    -3.275000000    -2.302000000
O    -5.357000000    -2.966000000    -3.364000000
C    -5.583000000    -1.647000000    -3.717000000
C    -4.611000000    -0.902000000    -4.351000000
H    -3.664000000    -1.400000000    -4.537000000
C    -6.771000000    -0.959000000    -3.353000000
H    -7.526000000    -1.465000000    -2.756000000
C    -6.996000000     0.397000000    -3.732000000
H    -7.907000000     0.947000000    -3.512000000
C    -6.007000000     1.094000000    -4.452000000
H    -6.123000000     2.119000000    -4.793000000
C    -4.833000000     0.425000000    -4.734000000
O    -3.831000000     1.172000000    -5.356000000
C    -3.065000000     2.073000000    -4.633000000
C    -2.160000000     2.798000000    -5.440000000
H    -2.076000000     2.680000000    -6.517000000
C    -1.265000000     3.649000000    -4.776000000
O    -0.328000000     4.230000000    -5.625000000
C     0.797000000     4.809000000    -5.149000000
C     0.839000000     6.232000000    -5.102000000
H     0.037000000     6.810000000    -5.554000000
C     2.015000000     6.848000000    -4.701000000
H     2.125000000     7.918000000    -4.545000000
C     3.103000000     6.103000000    -4.274000000
H     3.899000000     6.627000000    -3.750000000
C     3.076000000     4.666000000    -4.290000000
C     1.916000000     4.074000000    -4.655000000
H     1.770000000     3.033000000    -4.377000000
C    -0.896000000    -0.728000000    -2.534000000
H    -1.608000000    -0.531000000    -3.331000000
C    -1.006000000    -0.244000000    -1.272000000
H    -1.755000000     0.524000000    -1.098000000
C    -0.102000000    -0.608000000    -0.259000000
C    -0.101000000    -0.004000000     1.159000000
H    -0.735000000     0.886000000     1.180000000
H    -0.420000000    -0.698000000     1.939000000
H     0.942000000     0.263000000     1.338000000
C     0.864000000    -1.548000000    -0.519000000
H     1.600000000    -1.894000000     0.202000000
C     1.064000000    -1.983000000    -1.814000000
H     1.848000000    -2.635000000    -2.190000000
C     0.197000000    -1.612000000    -2.830000000
C     0.404000000    -2.093000000    -4.226000000
O     1.439000000    -2.637000000    -4.584000000
O    -0.490000000    -2.025000000    -5.076000000
O     4.474000000    -5.603000000    -3.569000000
H     3.669000000    -6.051000000    -3.829000000
H     4.338000000    -4.693000000    -3.834000000
O    -2.448000000    -8.065000000    -4.021000000
H    -2.520000000    -8.257000000    -4.956000000
H    -1.720000000    -7.448000000    -3.958000000
O    -2.251000000    -1.952000000    -7.123000000
H    -1.652000000    -1.839000000    -6.385000000
H    -2.987000000    -2.446000000    -6.761000000
O     6.612000000    -1.643000000    -4.313000000
H     5.931000000    -2.302000000    -4.443000000
H     6.248000000    -1.047000000    -3.659000000
O     1.052000000    -3.449000000    -7.050000000
H     1.318000000    -4.350000000    -6.866000000
H     1.082000000    -3.012000000    -6.199000000
O    -0.612000000    -5.287000000    -4.597000000
H    -0.271000000    -4.402000000    -4.470000000
H    -1.476000000    -5.157000000    -4.988000000
O    -0.950000000     0.634000000    -8.865000000
H    -0.597000000     0.094000000    -8.158000000
H    -1.899000000     0.534000000    -8.792000000
O     4.099000000    -3.048000000    -4.529000000
H     4.278000000    -3.049000000    -5.469000000
H     3.145000000    -3.096000000    -4.466000000
O     1.700000000    -6.674000000    -3.864000000
H     1.246000000    -7.416000000    -3.465000000
H     0.999000000    -6.071000000    -4.114000000
O    -2.810000000    -5.913000000    -6.102000000
H    -3.510000000    -5.288000000    -6.290000000
H    -2.878000000    -6.565000000    -6.800000000
O    -1.148000000    -3.509000000    -9.059000000
H    -1.804000000    -3.104000000    -8.491000000
H    -0.352000000    -3.530000000    -8.528000000
O    -3.450000000    -0.110000000    -8.803000000
H    -4.318000000    -0.036000000    -8.405000000
H    -2.914000000    -0.533000000    -8.132000000
O    -4.462000000    -3.588000000    -6.262000000
H    -5.222000000    -3.383000000    -5.717000000
H    -4.765000000    -3.442000000    -7.158000000
O     5.844000000    -1.087000000    -7.263000000
H     5.564000000    -1.947000000    -7.575000000
H     6.220000000    -1.256000000    -6.399000000
O     1.865000000    -5.978000000    -6.695000000
H     2.417000000    -6.496000000    -7.280000000
H     1.990000000    -6.375000000    -5.833000000
O     4.806000000     1.204000000    -8.273000000
H     5.047000000     0.376000000    -7.858000000
H     3.887000000     1.331000000    -8.037000000
O     2.278000000     1.629000000    -7.234000000
H     1.749000000     0.864000000    -7.009000000
H     1.772000000     2.080000000    -7.910000000
O     3.779000000    -3.289000000    -7.368000000
H     2.829000000    -3.199000000    -7.443000000
H     4.049000000    -3.677000000    -8.200000000
O     0.745000000    -0.681000000    -6.865000000
H     0.217000000    -1.094000000    -6.181000000
H     1.333000000    -1.375000000    -7.165000000
