218
-1483.01808
C    -4.611000000    -0.990000000    -2.951000000
H    -4.041000000    -0.568000000    -3.775000000
C    -4.762000000    -0.363000000    -1.776000000
C    -5.519000000    -0.902000000    -0.764000000
H    -5.715000000    -0.381000000     0.169000000
C    -4.029000000     0.966000000    -1.559000000
O    -3.904000000     1.752000000    -2.766000000
H    -2.998000000     0.703000000    -1.279000000
O    -4.696000000     1.831000000    -0.602000000
C    -3.905000000     2.446000000     0.367000000
C    -3.662000000     1.771000000     1.573000000
H    -4.215000000     0.849000000     1.736000000
C    -2.901000000     2.389000000     2.536000000
O    -2.683000000     1.742000000     3.746000000
C    -2.260000000     3.653000000     2.284000000
C    -1.314000000     4.237000000     3.234000000
H    -1.251000000     5.293000000     2.966000000
C     0.067000000     3.602000000     3.095000000
C     0.955000000     4.147000000     2.199000000
H     0.805000000     5.064000000     1.635000000
H    -1.723000000     4.203000000     4.246000000
C    -2.477000000     4.254000000     1.039000000
H    -2.052000000     5.234000000     0.837000000
C    -3.270000000     3.693000000     0.028000000
C    -3.381000000     4.270000000    -1.342000000
H    -3.218000000     5.350000000    -1.343000000
H    -4.387000000     4.243000000    -1.764000000
C    -2.406000000     3.562000000    -2.282000000
C    -1.111000000     4.173000000    -2.453000000
H    -0.791000000     5.076000000    -1.941000000
C    -2.714000000     2.377000000    -3.003000000
C    -1.793000000     1.814000000    -3.797000000
H    -2.079000000     0.949000000    -4.390000000
C    -0.551000000     2.445000000    -3.928000000
O     0.411000000     1.675000000    -4.558000000
C     1.351000000     0.948000000    -3.706000000
C     1.447000000    -0.488000000    -4.091000000
C     2.612000000    -1.184000000    -3.755000000
H     3.398000000    -0.655000000    -3.222000000
C     0.371000000    -1.239000000    -4.633000000
H    -0.545000000    -0.690000000    -4.832000000
O     2.627000000     1.607000000    -3.660000000
H     0.968000000     0.864000000    -2.678000000
C    -0.191000000     3.570000000    -3.248000000
C     1.185000000     4.171000000    -3.302000000
H     1.210000000     5.240000000    -3.080000000
H     1.542000000     4.106000000    -4.332000000
C     2.239000000     3.579000000    -2.368000000
C     2.434000000     4.248000000    -1.127000000
H     1.939000000     5.193000000    -0.917000000
C     2.902000000     2.410000000    -2.540000000
C     3.853000000     1.958000000    -1.694000000
H     4.337000000     0.990000000    -1.792000000
C     4.078000000     2.626000000    -0.461000000
O     4.871000000     1.947000000     0.497000000
C     4.106000000     1.180000000     1.457000000
C     4.716000000    -0.189000000     1.744000000
C     5.655000000    -0.733000000     0.777000000
H     5.858000000    -0.271000000    -0.186000000
C     4.460000000    -0.840000000     2.908000000
H     3.751000000    -0.363000000     3.579000000
O     3.865000000     1.885000000     2.686000000
H     3.110000000     0.997000000     1.028000000
C     3.301000000     3.752000000    -0.154000000
C     3.308000000     4.318000000     1.224000000
H     2.945000000     5.348000000     1.255000000
H     4.287000000     4.268000000     1.705000000
C     2.265000000     3.585000000     2.091000000
C     2.600000000     2.466000000     2.832000000
C     1.671000000     1.930000000     3.782000000
H     1.818000000     0.985000000     4.298000000
C     0.409000000     2.500000000     3.890000000
O    -0.467000000     1.733000000     4.616000000
C    -1.413000000     1.029000000     3.792000000
H    -1.064000000     1.015000000     2.749000000
C    -1.589000000    -0.429000000     4.143000000
C    -2.516000000    -1.269000000     3.557000000
H    -3.270000000    -0.877000000     2.879000000
C    -0.605000000    -1.007000000     4.953000000
H     0.110000000    -0.381000000     5.482000000
C    -0.602000000    -2.412000000     5.102000000
O     0.361000000    -3.097000000     5.810000000
C    -1.617000000    -3.217000000     4.581000000
H    -1.785000000    -4.258000000     4.845000000
C    -2.601000000    -2.649000000     3.821000000
O    -3.569000000    -3.426000000     3.219000000
C    -4.858000000    -3.055000000     2.965000000
C    -5.282000000    -3.089000000     1.579000000
H    -4.713000000    -3.658000000     0.848000000
C    -5.711000000    -2.453000000     3.865000000
H    -5.366000000    -2.403000000     4.895000000
C    -6.962000000    -1.929000000     3.512000000
H    -7.669000000    -1.545000000     4.243000000
C    -7.363000000    -1.945000000     2.220000000
H    -8.313000000    -1.463000000     2.005000000
C    -6.522000000    -2.551000000     1.238000000
O    -7.000000000    -2.603000000     0.007000000
C    -6.215000000    -2.110000000    -1.003000000
C    -6.045000000    -2.775000000    -2.214000000
H    -6.602000000    -3.686000000    -2.421000000
C    -5.169000000    -2.276000000    -3.196000000
O    -5.071000000    -2.837000000    -4.428000000
C    -4.073000000    -2.719000000    -5.255000000
C    -2.801000000    -3.058000000    -4.765000000
H    -2.528000000    -3.358000000    -3.757000000
C    -4.238000000    -2.361000000    -6.588000000
H    -5.218000000    -2.110000000    -6.985000000
C    -3.185000000    -2.246000000    -7.487000000
H    -3.368000000    -1.969000000    -8.522000000
C    -1.910000000    -2.707000000    -7.006000000
H    -1.024000000    -2.830000000    -7.624000000
C    -1.720000000    -3.046000000    -5.655000000
O    -0.544000000    -3.398000000    -5.142000000
C     0.494000000    -2.624000000    -4.765000000
C     1.648000000    -3.264000000    -4.383000000
H     1.701000000    -4.344000000    -4.270000000
C     2.717000000    -2.564000000    -3.843000000
O     3.840000000    -3.248000000    -3.448000000
C     5.080000000    -2.731000000    -3.063000000
C     5.445000000    -2.880000000    -1.717000000
H     4.813000000    -3.317000000    -0.949000000
C     5.906000000    -2.046000000    -3.928000000
H     5.630000000    -2.066000000    -4.979000000
C     7.125000000    -1.483000000    -3.450000000
H     7.730000000    -0.917000000    -4.154000000
C     7.516000000    -1.593000000    -2.127000000
H     8.444000000    -1.159000000    -1.764000000
C     6.690000000    -2.337000000    -1.328000000
O     7.046000000    -2.560000000     0.006000000
C     6.253000000    -1.946000000     0.988000000
C     6.075000000    -2.578000000     2.236000000
H     6.722000000    -3.414000000     2.490000000
C     5.171000000    -2.010000000     3.192000000
O     5.060000000    -2.577000000     4.420000000
C     3.960000000    -2.342000000     5.240000000
C     4.242000000    -1.621000000     6.387000000
H     5.266000000    -1.402000000     6.678000000
C     3.302000000    -1.270000000     7.361000000
H     3.675000000    -0.850000000     8.291000000
C     1.966000000    -1.738000000     7.182000000
H     1.291000000    -1.481000000     7.994000000
C     1.664000000    -2.525000000     6.050000000
C     2.673000000    -2.792000000     5.093000000
H     2.395000000    -3.489000000     4.308000000
C     0.523000000    -2.118000000     1.579000000
H     1.040000000    -2.656000000     2.369000000
C     0.710000000    -0.825000000     1.224000000
H     1.401000000    -0.186000000     1.768000000
C    -0.106000000    -0.323000000     0.184000000
C    -0.089000000     1.188000000    -0.074000000
H    -0.306000000     1.818000000     0.792000000
H     0.861000000     1.523000000    -0.496000000
H    -0.785000000     1.525000000    -0.844000000
C    -1.000000000    -1.099000000    -0.542000000
H    -1.534000000    -0.722000000    -1.410000000
C    -0.979000000    -2.445000000    -0.296000000
H    -1.462000000    -3.146000000    -0.971000000
C    -0.240000000    -2.976000000     0.733000000
C    -0.222000000    -4.467000000     1.012000000
O    -1.102000000    -5.174000000     0.559000000
O     0.695000000    -4.993000000     1.659000000
O    -3.586000000    -5.430000000    -0.614000000
H    -3.454000000    -5.331000000    -1.556000000
H    -2.778000000    -5.098000000    -0.222000000
O    -3.909000000    -8.841000000     3.714000000
H    -4.690000000    -8.683000000     4.243000000
H    -3.656000000    -7.975000000     3.396000000
O    -0.823000000    -8.274000000     3.998000000
H    -0.254000000    -7.505000000     3.990000000
H    -1.481000000    -8.092000000     3.326000000
O    -2.545000000    -6.296000000     2.632000000
H    -2.958000000    -5.516000000     3.001000000
H    -2.025000000    -5.968000000     1.899000000
O    -5.410000000    -6.798000000     0.743000000
H    -6.079000000    -6.635000000     0.079000000
H    -4.620000000    -6.384000000     0.395000000
O    -2.099000000    -6.513000000    -4.317000000
H    -1.669000000    -7.355000000    -4.169000000
H    -1.380000000    -5.902000000    -4.478000000
O    -5.795000000    -6.486000000     3.510000000
H    -5.442000000    -6.319000000     2.636000000
H    -6.664000000    -6.854000000     3.350000000
O     0.190000000    -6.885000000    -2.706000000
H     0.567000000    -6.836000000    -1.828000000
H    -0.560000000    -7.473000000    -2.613000000
O    -3.878000000    -5.693000000     5.345000000
H    -4.405000000    -5.882000000     4.569000000
H    -4.425000000    -5.108000000     5.870000000
O     0.923000000    -7.153000000    -0.135000000
H     0.315000000    -6.465000000     0.133000000
H     1.783000000    -6.832000000     0.136000000
O     0.871000000    -6.159000000     4.075000000
H     0.608000000    -5.572000000     3.367000000
H     1.780000000    -6.383000000     3.875000000
O     2.600000000    -9.938000000     0.182000000
H     1.928000000    -9.928000000     0.864000000
H     2.184000000   -10.382000000    -0.557000000
O     3.586000000    -5.179000000     2.404000000
H     2.765000000    -4.860000000     2.029000000
H     3.487000000    -6.131000000     2.420000000
O     2.474000000    -4.520000000    -0.918000000
H     2.080000000    -4.136000000    -1.701000000
H     2.087000000    -4.032000000    -0.191000000
O     6.379000000    -5.550000000     0.954000000
H     6.156000000    -6.430000000     0.649000000
H     5.589000000    -5.244000000     1.400000000
O     4.512000000    -6.354000000    -2.108000000
H     4.647000000    -7.213000000    -1.709000000
H     4.095000000    -5.833000000    -1.421000000
O     3.315000000    -7.788000000     2.445000000
H     3.637000000    -8.334000000     3.161000000
H     3.386000000    -8.343000000     1.669000000
O     1.464000000   -10.004000000     2.735000000
H     0.751000000    -9.413000000     2.980000000
H     2.112000000    -9.898000000     3.432000000
O     5.697000000    -5.670000000     4.080000000
H     4.913000000    -5.330000000     3.649000000
H     6.018000000    -4.938000000     4.606000000
