218
-1452.35644
C     3.645000000    -3.969000000    -0.588000000
H     2.771000000    -4.493000000    -0.211000000
C     4.072000000    -2.802000000     0.019000000
C     5.056000000    -2.131000000    -0.679000000
H     5.495000000    -1.240000000    -0.238000000
C     3.462000000    -2.353000000     1.324000000
O     2.905000000    -3.281000000     2.223000000
H     2.656000000    -1.723000000     0.920000000
O     4.305000000    -1.361000000     2.019000000
C     3.800000000    -0.197000000     2.557000000
C     3.824000000     0.941000000     1.758000000
H     4.305000000     0.936000000     0.783000000
C     3.266000000     2.110000000     2.193000000
O     3.383000000     3.114000000     1.306000000
C     2.583000000     2.229000000     3.367000000
C     1.902000000     3.541000000     3.815000000
H     1.766000000     3.514000000     4.899000000
C     0.615000000     3.635000000     3.152000000
C    -0.478000000     3.208000000     3.938000000
H    -0.334000000     2.819000000     4.943000000
H     2.570000000     4.377000000     3.599000000
C     2.519000000     1.045000000     4.200000000
H     2.111000000     1.004000000     5.207000000
C     3.122000000    -0.176000000     3.766000000
C     2.832000000    -1.433000000     4.515000000
H     2.715000000    -1.252000000     5.586000000
H     3.614000000    -2.190000000     4.426000000
C     1.584000000    -2.115000000     3.922000000
C     0.329000000    -1.824000000     4.463000000
H     0.269000000    -1.064000000     5.237000000
C     1.690000000    -2.999000000     2.831000000
C     0.589000000    -3.644000000     2.368000000
H     0.779000000    -4.341000000     1.555000000
C    -0.646000000    -3.492000000     2.947000000
O    -1.738000000    -4.052000000     2.343000000
C    -2.419000000    -3.179000000     1.395000000
C    -2.761000000    -3.782000000     0.040000000
C    -3.867000000    -3.321000000    -0.641000000
H    -4.442000000    -2.510000000    -0.201000000
C    -1.845000000    -4.731000000    -0.531000000
H    -0.995000000    -5.154000000    -0.001000000
O    -3.530000000    -2.550000000     2.070000000
H    -1.720000000    -2.394000000     1.070000000
C    -0.790000000    -2.488000000     3.951000000
C    -2.138000000    -2.239000000     4.535000000
H    -2.108000000    -2.001000000     5.600000000
H    -2.845000000    -3.070000000     4.476000000
C    -2.783000000    -1.067000000     3.835000000
C    -2.702000000     0.218000000     4.274000000
H    -2.124000000     0.307000000     5.190000000
C    -3.549000000    -1.332000000     2.682000000
C    -4.254000000    -0.338000000     2.088000000
H    -4.870000000    -0.457000000     1.200000000
C    -4.122000000     0.970000000     2.508000000
O    -4.604000000     1.967000000     1.681000000
C    -3.675000000     2.522000000     0.779000000
C    -4.245000000     2.779000000    -0.612000000
C    -5.215000000     1.937000000    -1.138000000
H    -5.585000000     1.091000000    -0.564000000
C    -3.708000000     3.789000000    -1.468000000
H    -2.909000000     4.471000000    -1.188000000
O    -3.142000000     3.748000000     1.423000000
H    -2.849000000     1.800000000     0.694000000
C    -3.278000000     1.302000000     3.593000000
C    -2.961000000     2.680000000     4.068000000
H    -2.741000000     2.714000000     5.137000000
H    -3.794000000     3.352000000     3.855000000
C    -1.742000000     3.218000000     3.338000000
C    -1.856000000     3.585000000     2.003000000
C    -0.750000000     4.041000000     1.237000000
H    -0.865000000     4.476000000     0.248000000
C     0.507000000     4.061000000     1.828000000
O     1.536000000     4.471000000     0.964000000
C     2.274000000     3.345000000     0.457000000
H     1.641000000     2.455000000     0.589000000
C     2.676000000     3.443000000    -1.061000000
C     3.998000000     3.184000000    -1.446000000
H     4.784000000     2.842000000    -0.778000000
C     1.731000000     3.841000000    -1.965000000
H     0.727000000     4.053000000    -1.607000000
C     1.968000000     3.892000000    -3.320000000
O     1.041000000     4.317000000    -4.242000000
C     3.329000000     3.665000000    -3.708000000
H     3.515000000     3.630000000    -4.778000000
C     4.349000000     3.271000000    -2.801000000
O     5.599000000     2.875000000    -3.250000000
C     6.392000000     1.811000000    -2.791000000
C     5.948000000     0.440000000    -2.807000000
H     5.076000000     0.287000000    -3.438000000
C     7.583000000     2.073000000    -2.174000000
H     7.895000000     3.108000000    -2.059000000
C     8.444000000     1.068000000    -1.757000000
H     9.409000000     1.423000000    -1.406000000
C     8.010000000    -0.312000000    -1.876000000
H     8.698000000    -1.107000000    -1.599000000
C     6.754000000    -0.593000000    -2.333000000
O     6.586000000    -1.913000000    -2.516000000
C     5.634000000    -2.586000000    -1.882000000
C     5.182000000    -3.751000000    -2.399000000
H     5.560000000    -4.172000000    -3.327000000
C     4.127000000    -4.429000000    -1.802000000
O     3.573000000    -5.505000000    -2.369000000
C     2.369000000    -6.112000000    -1.917000000
C     1.175000000    -5.781000000    -2.465000000
H     1.088000000    -5.175000000    -3.363000000
C     2.424000000    -7.061000000    -0.879000000
H     3.367000000    -7.419000000    -0.473000000
C     1.280000000    -7.623000000    -0.395000000
H     1.389000000    -8.308000000     0.441000000
C     0.083000000    -7.367000000    -1.039000000
H    -0.779000000    -7.897000000    -0.643000000
C    -0.012000000    -6.375000000    -2.060000000
O    -1.217000000    -6.000000000    -2.550000000
C    -2.064000000    -5.124000000    -1.891000000
C    -3.114000000    -4.567000000    -2.568000000
H    -3.264000000    -4.696000000    -3.637000000
C    -4.026000000    -3.734000000    -1.955000000
O    -4.898000000    -3.140000000    -2.796000000
C    -5.930000000    -2.344000000    -2.362000000
C    -5.913000000    -1.013000000    -2.880000000
H    -5.139000000    -0.737000000    -3.592000000
C    -6.969000000    -2.695000000    -1.482000000
H    -6.953000000    -3.704000000    -1.079000000
C    -7.983000000    -1.795000000    -1.118000000
H    -8.754000000    -2.182000000    -0.456000000
C    -7.837000000    -0.457000000    -1.564000000
H    -8.509000000     0.303000000    -1.173000000
C    -6.859000000    -0.095000000    -2.464000000
O    -6.744000000     1.266000000    -2.829000000
C    -5.658000000     2.084000000    -2.409000000
C    -5.180000000     3.108000000    -3.259000000
H    -5.555000000     3.262000000    -4.267000000
C    -4.254000000     4.099000000    -2.720000000
O    -3.633000000     5.025000000    -3.593000000
C    -2.359000000     5.494000000    -3.414000000
C    -2.090000000     6.834000000    -3.038000000
H    -2.800000000     7.578000000    -2.688000000
C    -0.817000000     7.304000000    -3.169000000
H    -0.674000000     8.323000000    -2.819000000
C     0.218000000     6.469000000    -3.494000000
H     1.243000000     6.819000000    -3.579000000
C     0.018000000     5.176000000    -3.857000000
C    -1.291000000     4.672000000    -3.814000000
H    -1.520000000     3.659000000    -4.134000000
C     0.408000000    -2.145000000    -2.652000000
H    -0.077000000    -2.884000000    -3.285000000
C    -0.304000000    -1.608000000    -1.572000000
H    -1.335000000    -1.915000000    -1.410000000
C     0.232000000    -0.643000000    -0.788000000
C    -0.697000000     0.160000000     0.092000000
H    -0.202000000     0.229000000     1.062000000
H    -1.017000000     1.158000000    -0.215000000
H    -1.589000000    -0.383000000     0.411000000
C     1.575000000    -0.216000000    -1.070000000
H     2.024000000     0.587000000    -0.491000000
C     2.276000000    -0.714000000    -2.153000000
H     3.275000000    -0.330000000    -2.344000000
C     1.747000000    -1.664000000    -2.964000000
C     2.427000000    -2.176000000    -4.249000000
O     3.460000000    -1.718000000    -4.770000000
O     1.836000000    -2.981000000    -4.909000000
O     6.562000000     2.181000000    -5.962000000
H     7.240000000     2.056000000    -6.627000000
H     6.034000000     1.383000000    -6.006000000
O     2.290000000    -5.385000000    -5.940000000
H     1.981000000    -4.630000000    -5.440000000
H     3.167000000    -5.137000000    -6.232000000
O     5.733000000    -6.063000000    -7.115000000
H     5.508000000    -5.160000000    -6.894000000
H     5.675000000    -6.098000000    -8.070000000
O     0.527000000     2.131000000    -6.162000000
H     0.689000000     3.068000000    -6.264000000
H     1.399000000     1.735000000    -6.163000000
O    -0.165000000    -3.278000000    -7.211000000
H     0.228000000    -3.041000000    -6.370000000
H    -1.067000000    -2.964000000    -7.150000000
O     1.686000000    -8.106000000    -6.478000000
H     1.742000000    -7.152000000    -6.522000000
H     2.494000000    -8.373000000    -6.039000000
O     3.536000000    -4.033000000    -9.262000000
H     3.005000000    -3.780000000   -10.018000000
H     4.195000000    -4.628000000    -9.621000000
O     3.182000000     0.744000000    -6.076000000
H     4.127000000     0.623000000    -6.168000000
H     2.890000000    -0.018000000    -5.577000000
O     0.391000000     0.206000000    -8.290000000
H     0.744000000    -0.646000000    -8.032000000
H     0.103000000     0.604000000    -7.468000000
O     5.573000000    -0.336000000    -6.211000000
H     4.850000000    -0.781000000    -5.767000000
H     5.883000000    -0.970000000    -6.857000000
O     3.515000000    -8.384000000    -4.383000000
H     3.039000000    -8.777000000    -3.651000000
H     3.471000000    -7.442000000    -4.219000000
O     4.174000000    -0.707000000    -9.443000000
H     3.680000000    -1.191000000    -8.782000000
H     3.565000000    -0.038000000    -9.755000000
O     0.660000000    -5.548000000    -8.865000000
H     1.601000000    -5.542000000    -8.691000000
H     0.314000000    -4.828000000    -8.338000000
O     4.611000000    -3.353000000    -6.564000000
H     4.036000000    -2.825000000    -6.011000000
H     4.225000000    -3.294000000    -7.438000000
O     2.438000000    -1.819000000    -7.406000000
H     2.467000000    -2.005000000    -6.468000000
H     1.863000000    -2.494000000    -7.767000000
O     7.175000000    -3.757000000    -5.736000000
H     6.378000000    -3.282000000    -5.501000000
H     6.948000000    -4.218000000    -6.545000000
O     6.672000000    -1.402000000    -8.536000000
H     5.819000000    -1.232000000    -8.936000000
H     7.255000000    -1.567000000    -9.277000000
O    -3.463000000     0.654000000    -5.431000000
H    -2.728000000     0.310000000    -4.924000000
H    -3.063000000     1.276000000    -6.040000000
O    -0.865000000     0.194000000    -4.827000000
H    -0.209000000     0.821000000    -5.132000000
H    -0.582000000    -0.036000000    -3.942000000
