218
-1460.97367
C     1.740000000    -4.919000000    -1.548000000
H     1.076000000    -5.505000000    -0.917000000
C     2.580000000    -3.950000000    -1.036000000
C     3.531000000    -3.312000000    -1.890000000
H     4.275000000    -2.652000000    -1.451000000
C     2.568000000    -3.626000000     0.419000000
O     1.982000000    -4.616000000     1.300000000
H     1.910000000    -2.747000000     0.484000000
O     3.905000000    -3.114000000     0.884000000
C     3.896000000    -1.984000000     1.737000000
C     4.249000000    -0.810000000     1.190000000
H     4.714000000    -0.766000000     0.209000000
C     4.236000000     0.325000000     1.927000000
O     4.781000000     1.395000000     1.326000000
C     3.655000000     0.358000000     3.162000000
C     3.587000000     1.548000000     4.071000000
H     3.480000000     1.265000000     5.121000000
C     2.348000000     2.352000000     3.646000000
C     1.141000000     2.133000000     4.269000000
H     1.130000000     1.422000000     5.091000000
H     4.510000000     2.131000000     4.052000000
C     3.067000000    -0.810000000     3.650000000
H     2.474000000    -0.884000000     4.558000000
C     3.220000000    -2.035000000     3.041000000
C     2.597000000    -3.278000000     3.782000000
H     2.668000000    -3.102000000     4.857000000
H     3.242000000    -4.126000000     3.546000000
C     1.176000000    -3.496000000     3.213000000
C     0.089000000    -2.976000000     3.934000000
H     0.230000000    -2.537000000     4.919000000
C     0.912000000    -4.190000000     2.066000000
C    -0.391000000    -4.334000000     1.634000000
H    -0.670000000    -4.969000000     0.798000000
C    -1.446000000    -3.707000000     2.283000000
O    -2.656000000    -3.613000000     1.663000000
C    -3.168000000    -2.335000000     1.132000000
C    -3.864000000    -2.583000000    -0.202000000
C    -4.588000000    -1.550000000    -0.778000000
H    -4.709000000    -0.641000000    -0.195000000
C    -3.640000000    -3.740000000    -0.958000000
H    -3.111000000    -4.568000000    -0.495000000
O    -4.124000000    -1.726000000     2.109000000
H    -2.332000000    -1.629000000     1.019000000
C    -1.284000000    -3.042000000     3.499000000
C    -2.424000000    -2.460000000     4.280000000
H    -2.195000000    -2.498000000     5.347000000
H    -3.334000000    -3.058000000     4.196000000
C    -2.771000000    -1.022000000     3.937000000
C    -2.034000000     0.020000000     4.524000000
H    -1.223000000    -0.176000000     5.220000000
C    -3.631000000    -0.687000000     2.897000000
C    -3.967000000     0.598000000     2.534000000
H    -4.673000000     0.765000000     1.725000000
C    -3.106000000     1.637000000     3.005000000
O    -3.197000000     2.929000000     2.564000000
C    -2.212000000     3.285000000     1.602000000
C    -2.787000000     3.811000000     0.324000000
C    -4.117000000     3.794000000    -0.067000000
H    -4.856000000     3.436000000     0.644000000
C    -1.891000000     4.384000000    -0.571000000
H    -0.863000000     4.464000000    -0.228000000
O    -1.124000000     4.095000000     2.037000000
H    -1.597000000     2.410000000     1.343000000
C    -2.161000000     1.354000000     4.033000000
C    -1.312000000     2.410000000     4.605000000
H    -1.112000000     2.267000000     5.669000000
H    -1.773000000     3.400000000     4.614000000
C    -0.023000000     2.695000000     3.843000000
C     0.007000000     3.553000000     2.665000000
C     1.227000000     3.863000000     2.077000000
H     1.272000000     4.588000000     1.269000000
C     2.360000000     3.184000000     2.501000000
O     3.516000000     3.397000000     1.767000000
C     3.876000000     2.445000000     0.842000000
H     2.911000000     2.003000000     0.554000000
C     4.194000000     2.992000000    -0.563000000
C     4.452000000     2.099000000    -1.552000000
H     4.543000000     1.046000000    -1.297000000
C     3.847000000     4.303000000    -0.913000000
H     3.599000000     4.979000000    -0.099000000
C     3.772000000     4.702000000    -2.238000000
O     3.484000000     5.995000000    -2.443000000
C     4.142000000     3.765000000    -3.273000000
H     4.165000000     4.148000000    -4.290000000
C     4.514000000     2.478000000    -2.930000000
O     4.700000000     1.559000000    -3.961000000
C     5.281000000     0.318000000    -3.711000000
C     4.659000000    -0.825000000    -4.190000000
H     3.763000000    -0.777000000    -4.803000000
C     6.512000000     0.185000000    -3.116000000
H     6.998000000     1.118000000    -2.842000000
C     7.127000000    -1.014000000    -2.904000000
H     8.093000000    -1.068000000    -2.410000000
C     6.434000000    -2.177000000    -3.262000000
H     6.896000000    -3.150000000    -3.114000000
C     5.213000000    -2.072000000    -3.914000000
O     4.507000000    -3.270000000    -4.168000000
C     3.507000000    -3.686000000    -3.242000000
C     2.575000000    -4.537000000    -3.813000000
H     2.586000000    -4.727000000    -4.883000000
C     1.675000000    -5.165000000    -2.941000000
O     0.820000000    -6.120000000    -3.537000000
C    -0.409000000    -6.419000000    -2.963000000
C    -1.466000000    -5.561000000    -3.224000000
H    -1.367000000    -4.648000000    -3.805000000
C    -0.536000000    -7.637000000    -2.222000000
H     0.390000000    -8.162000000    -2.003000000
C    -1.817000000    -7.903000000    -1.743000000
H    -1.997000000    -8.785000000    -1.133000000
C    -2.878000000    -7.006000000    -2.015000000
H    -3.805000000    -7.137000000    -1.464000000
C    -2.735000000    -5.859000000    -2.793000000
O    -3.879000000    -5.069000000    -2.955000000
C    -4.142000000    -3.900000000    -2.220000000
C    -4.760000000    -2.838000000    -2.849000000
H    -5.125000000    -2.942000000    -3.867000000
C    -5.006000000    -1.643000000    -2.053000000
O    -5.711000000    -0.575000000    -2.733000000
C    -6.275000000     0.514000000    -1.975000000
C    -5.940000000     1.777000000    -2.349000000
H    -5.213000000     1.919000000    -3.145000000
C    -7.270000000     0.217000000    -0.963000000
H    -7.668000000    -0.786000000    -0.830000000
C    -7.886000000     1.361000000    -0.372000000
H    -8.669000000     1.204000000     0.366000000
C    -7.416000000     2.665000000    -0.700000000
H    -7.863000000     3.489000000    -0.150000000
C    -6.388000000     2.861000000    -1.612000000
O    -5.759000000     4.093000000    -1.655000000
C    -4.482000000     4.230000000    -1.314000000
C    -3.491000000     4.773000000    -2.213000000
H    -3.782000000     5.120000000    -3.202000000
C    -2.225000000     5.013000000    -1.743000000
O    -1.307000000     5.593000000    -2.521000000
C    -0.159000000     6.236000000    -2.149000000
C    -0.340000000     7.325000000    -1.304000000
H    -1.376000000     7.553000000    -1.069000000
C     0.807000000     8.065000000    -0.938000000
H     0.696000000     8.872000000    -0.219000000
C     2.071000000     7.726000000    -1.481000000
H     2.974000000     8.261000000    -1.197000000
C     2.196000000     6.490000000    -2.177000000
C     1.069000000     5.726000000    -2.483000000
H     1.170000000     4.800000000    -3.045000000
C    -1.711000000    -0.212000000    -2.049000000
H    -2.694000000     0.033000000    -2.442000000
C    -1.436000000    -0.019000000    -0.706000000
H    -2.135000000     0.361000000     0.034000000
C    -0.104000000    -0.188000000    -0.281000000
C     0.364000000     0.152000000     1.083000000
H     0.688000000    -0.768000000     1.573000000
H     1.262000000     0.772000000     1.037000000
H    -0.385000000     0.784000000     1.566000000
C     0.892000000    -0.782000000    -1.128000000
H     1.921000000    -0.857000000    -0.786000000
C     0.513000000    -1.255000000    -2.392000000
H     1.252000000    -1.873000000    -2.897000000
C    -0.781000000    -0.918000000    -2.830000000
C    -1.103000000    -1.251000000    -4.197000000
O    -0.250000000    -1.554000000    -4.998000000
O    -2.261000000    -1.344000000    -4.554000000
O    -1.896000000     3.153000000    -6.737000000
H    -2.798000000     2.979000000    -6.470000000
H    -1.516000000     3.633000000    -6.001000000
O    -1.887000000    -4.454000000    -9.187000000
H    -2.033000000    -5.279000000    -8.725000000
H    -2.747000000    -4.032000000    -9.203000000
O    -5.629000000     1.343000000    -8.467000000
H    -6.565000000     1.526000000    -8.551000000
H    -5.586000000     0.415000000    -8.239000000
O    -0.057000000     2.213000000    -2.804000000
H    -0.480000000     2.379000000    -1.962000000
H     0.159000000     1.281000000    -2.784000000
O    -4.570000000     2.573000000    -6.082000000
H    -4.664000000     1.736000000    -5.627000000
H    -4.586000000     2.344000000    -7.011000000
O    -4.202000000    -3.169000000    -9.378000000
H    -4.919000000    -3.423000000    -9.958000000
H    -4.572000000    -2.479000000    -8.828000000
O    -2.976000000    -3.384000000    -6.174000000
H    -2.901000000    -2.757000000    -6.893000000
H    -2.774000000    -2.873000000    -5.389000000
O     1.726000000    -5.840000000    -7.200000000
H     1.213000000    -6.459000000    -7.721000000
H     1.094000000    -5.176000000    -6.926000000
O    -0.089000000    -2.323000000    -9.109000000
H    -0.380000000    -3.233000000    -9.176000000
H    -0.763000000    -1.894000000    -8.582000000
O     1.269000000    -0.084000000    -6.515000000
H     1.723000000    -0.827000000    -6.914000000
H     0.703000000    -0.477000000    -5.851000000
O    -0.183000000    -4.128000000    -6.357000000
H    -0.062000000    -3.334000000    -5.836000000
H    -1.132000000    -4.239000000    -6.409000000
O    -1.944000000    -1.289000000    -7.465000000
H    -2.493000000    -0.579000000    -7.133000000
H    -1.197000000    -1.314000000    -6.868000000
O    -5.453000000    -1.221000000    -7.676000000
H    -4.950000000    -0.785000000    -6.988000000
H    -6.148000000    -1.683000000    -7.208000000
O     2.469000000     0.071000000    -9.429000000
H     1.993000000     0.334000000    -8.641000000
H     2.900000000    -0.748000000    -9.185000000
O    -5.318000000    -5.664000000    -5.535000000
H    -5.186000000    -5.236000000    -6.381000000
H    -4.510000000    -5.494000000    -5.051000000
O     2.583000000    -2.534000000    -7.451000000
H     1.693000000    -2.882000000    -7.495000000
H     3.120000000    -3.195000000    -7.888000000
O    -0.299000000     3.978000000    -4.845000000
H    -0.744000000     4.432000000    -4.129000000
H     0.019000000     3.165000000    -4.452000000
O    -4.369000000    -0.151000000    -5.323000000
H    -3.588000000    -0.652000000    -5.089000000
H    -4.982000000    -0.314000000    -4.606000000
O     0.353000000     2.178000000    -7.735000000
H     0.604000000     1.380000000    -7.268000000
H    -0.508000000     2.401000000    -7.382000000
