218
-1433.67164
C     0.993000000    -4.987000000    -1.227000000
H     0.525000000    -5.460000000    -0.368000000
C     1.816000000    -3.897000000    -0.924000000
C     2.477000000    -3.273000000    -1.974000000
H     3.106000000    -2.412000000    -1.763000000
C     2.052000000    -3.464000000     0.572000000
O     1.523000000    -4.432000000     1.419000000
H     1.524000000    -2.502000000     0.647000000
O     3.449000000    -3.171000000     0.817000000
C     3.771000000    -2.120000000     1.574000000
C     4.409000000    -1.084000000     0.978000000
H     4.754000000    -1.215000000    -0.044000000
C     4.566000000     0.152000000     1.504000000
O     4.957000000     1.187000000     0.715000000
C     4.089000000     0.357000000     2.805000000
C     4.186000000     1.723000000     3.433000000
H     4.217000000     1.501000000     4.502000000
C     2.955000000     2.561000000     3.065000000
C     1.827000000     2.549000000     3.902000000
H     1.931000000     1.974000000     4.818000000
H     5.130000000     2.173000000     3.119000000
C     3.420000000    -0.672000000     3.446000000
H     2.944000000    -0.541000000     4.414000000
C     3.236000000    -1.891000000     2.874000000
C     2.603000000    -2.952000000     3.789000000
H     2.686000000    -2.706000000     4.849000000
H     3.092000000    -3.915000000     3.631000000
C     1.156000000    -3.137000000     3.472000000
C     0.162000000    -2.588000000     4.325000000
H     0.572000000    -1.915000000     5.074000000
C     0.674000000    -3.881000000     2.374000000
C    -0.731000000    -4.083000000     2.151000000
H    -1.058000000    -4.463000000     1.187000000
C    -1.681000000    -3.581000000     3.086000000
O    -2.965000000    -3.604000000     2.621000000
C    -3.345000000    -2.319000000     1.919000000
C    -4.128000000    -2.471000000     0.566000000
C    -4.776000000    -1.409000000    -0.083000000
H    -4.775000000    -0.418000000     0.362000000
C    -4.071000000    -3.678000000    -0.082000000
H    -3.628000000    -4.518000000     0.446000000
O    -3.953000000    -1.268000000     2.741000000
H    -2.375000000    -1.843000000     1.714000000
C    -1.233000000    -2.725000000     4.134000000
C    -2.230000000    -1.904000000     4.950000000
H    -1.885000000    -1.926000000     5.986000000
H    -3.116000000    -2.540000000     4.902000000
C    -2.336000000    -0.458000000     4.376000000
C    -1.457000000     0.577000000     4.699000000
H    -0.644000000     0.379000000     5.393000000
C    -3.191000000    -0.244000000     3.300000000
C    -3.303000000     1.039000000     2.737000000
H    -3.983000000     1.073000000     1.889000000
C    -2.429000000     2.066000000     3.056000000
O    -2.574000000     3.177000000     2.305000000
C    -1.532000000     3.447000000     1.270000000
C    -2.237000000     4.051000000     0.011000000
C    -3.584000000     3.864000000    -0.177000000
H    -4.181000000     3.365000000     0.582000000
C    -1.412000000     4.682000000    -0.900000000
H    -0.368000000     4.877000000    -0.668000000
O    -0.597000000     4.360000000     1.747000000
H    -1.076000000     2.521000000     0.891000000
C    -1.524000000     1.837000000     4.059000000
C    -0.664000000     2.981000000     4.511000000
H    -0.323000000     2.855000000     5.541000000
H    -1.240000000     3.909000000     4.509000000
C     0.608000000     3.148000000     3.586000000
C     0.597000000     3.896000000     2.391000000
C     1.732000000     3.987000000     1.560000000
H     1.707000000     4.517000000     0.611000000
C     2.876000000     3.291000000     1.912000000
O     3.828000000     3.312000000     0.980000000
C     3.920000000     2.120000000     0.144000000
H     2.977000000     1.553000000     0.165000000
C     4.210000000     2.520000000    -1.304000000
C     4.720000000     1.565000000    -2.236000000
H     5.097000000     0.619000000    -1.855000000
C     3.913000000     3.796000000    -1.826000000
H     3.416000000     4.447000000    -1.112000000
C     3.966000000     4.142000000    -3.210000000
O     3.556000000     5.335000000    -3.697000000
C     4.448000000     3.155000000    -4.023000000
H     4.556000000     3.458000000    -5.062000000
C     4.771000000     1.864000000    -3.595000000
O     5.101000000     1.001000000    -4.535000000
C     5.294000000    -0.380000000    -4.381000000
C     4.196000000    -1.192000000    -4.507000000
H     3.224000000    -0.835000000    -4.836000000
C     6.522000000    -0.860000000    -3.960000000
H     7.312000000    -0.186000000    -3.639000000
C     6.530000000    -2.247000000    -3.670000000
H     7.446000000    -2.723000000    -3.329000000
C     5.415000000    -3.058000000    -3.663000000
H     5.436000000    -4.102000000    -3.360000000
C     4.214000000    -2.453000000    -4.086000000
O     3.123000000    -3.131000000    -4.237000000
C     2.422000000    -3.777000000    -3.289000000
C     1.575000000    -4.812000000    -3.568000000
H     1.420000000    -5.232000000    -4.558000000
C     0.787000000    -5.340000000    -2.550000000
O     0.011000000    -6.452000000    -2.851000000
C    -1.278000000    -6.567000000    -2.163000000
C    -2.227000000    -5.568000000    -2.337000000
H    -2.053000000    -4.720000000    -2.995000000
C    -1.452000000    -7.637000000    -1.278000000
H    -0.779000000    -8.411000000    -0.919000000
C    -2.765000000    -7.875000000    -0.782000000
H    -3.028000000    -8.739000000    -0.177000000
C    -3.772000000    -6.974000000    -1.032000000
H    -4.774000000    -7.111000000    -0.634000000
C    -3.493000000    -5.842000000    -1.768000000
O    -4.554000000    -5.007000000    -2.016000000
C    -4.645000000    -3.868000000    -1.285000000
C    -5.334000000    -2.866000000    -1.979000000
H    -5.688000000    -3.039000000    -2.992000000
C    -5.443000000    -1.666000000    -1.338000000
O    -6.176000000    -0.730000000    -2.039000000
C    -6.511000000     0.514000000    -1.504000000
C    -5.887000000     1.760000000    -1.954000000
H    -5.190000000     1.587000000    -2.770000000
C    -7.322000000     0.563000000    -0.428000000
H    -7.773000000    -0.349000000    -0.045000000
C    -7.547000000     1.794000000     0.255000000
H    -8.261000000     1.847000000     1.072000000
C    -6.931000000     2.981000000    -0.201000000
H    -7.175000000     3.937000000     0.254000000
C    -6.087000000     2.986000000    -1.337000000
O    -5.479000000     4.204000000    -1.725000000
C    -4.128000000     4.414000000    -1.376000000
C    -3.272000000     5.052000000    -2.342000000
H    -3.788000000     5.375000000    -3.242000000
C    -1.972000000     5.201000000    -2.088000000
O    -1.117000000     5.746000000    -3.080000000
C     0.123000000     6.231000000    -2.757000000
C     0.340000000     7.283000000    -1.917000000
H    -0.530000000     7.811000000    -1.536000000
C     1.654000000     7.732000000    -1.639000000
H     1.938000000     8.590000000    -1.035000000
C     2.717000000     7.112000000    -2.292000000
H     3.739000000     7.459000000    -2.165000000
C     2.510000000     6.075000000    -3.198000000
C     1.195000000     5.554000000    -3.320000000
H     1.096000000     4.601000000    -3.833000000
C    -1.536000000    -0.005000000    -1.940000000
H    -2.546000000    -0.100000000    -2.331000000
C    -1.167000000     0.125000000    -0.610000000
H    -1.934000000     0.027000000     0.154000000
C     0.120000000     0.105000000    -0.149000000
C     0.324000000    -0.266000000     1.310000000
H     1.385000000    -0.205000000     1.561000000
H    -0.255000000     0.502000000     1.828000000
H    -0.010000000    -1.296000000     1.456000000
C     1.147000000     0.190000000    -1.091000000
H     2.195000000     0.024000000    -0.856000000
C     0.788000000     0.339000000    -2.500000000
H     1.561000000     0.417000000    -3.261000000
C    -0.550000000     0.224000000    -2.876000000
C    -0.894000000     0.353000000    -4.355000000
O    -0.075000000     0.579000000    -5.205000000
O    -2.025000000     0.397000000    -4.673000000
O    -1.649000000    -1.394000000    -9.101000000
H    -0.957000000    -1.858000000    -8.629000000
H    -1.473000000    -0.468000000    -8.935000000
O    -1.798000000     5.107000000    -6.114000000
H    -1.892000000     5.823000000    -5.486000000
H    -1.203000000     4.490000000    -5.687000000
O     2.581000000     2.611000000    -7.694000000
H     2.441000000     1.817000000    -7.179000000
H     2.994000000     2.304000000    -8.501000000
O    -5.927000000     1.685000000    -6.549000000
H    -4.975000000     1.715000000    -6.647000000
H    -6.085000000     0.934000000    -5.976000000
O    -4.560000000    -0.949000000    -4.995000000
H    -4.330000000    -0.765000000    -5.906000000
H    -3.839000000    -0.578000000    -4.487000000
O     0.391000000    -3.252000000    -8.434000000
H     1.034000000    -3.843000000    -8.826000000
H     0.702000000    -3.121000000    -7.538000000
O    -0.282000000     0.996000000    -7.767000000
H     0.653000000     0.813000000    -7.860000000
H    -0.481000000     0.769000000    -6.859000000
O     0.761000000    -2.194000000    -5.890000000
H     0.673000000    -1.266000000    -5.672000000
H     1.591000000    -2.456000000    -5.491000000
O    -3.411000000     2.667000000    -4.117000000
H    -2.817000000     2.954000000    -3.423000000
H    -2.971000000     1.914000000    -4.512000000
O    -5.178000000     4.465000000    -5.038000000
H    -4.517000000     3.812000000    -4.809000000
H    -5.921000000     3.953000000    -5.356000000
O    -1.788000000    -3.591000000    -6.422000000
H    -1.296000000    -3.488000000    -7.237000000
H    -1.360000000    -2.995000000    -5.807000000
O    -3.130000000     1.172000000    -6.859000000
H    -2.548000000     0.796000000    -6.199000000
H    -2.541000000     1.588000000    -7.489000000
O    -4.469000000    -3.848000000    -5.359000000
H    -4.801000000    -2.962000000    -5.215000000
H    -3.603000000    -3.719000000    -5.745000000
O     2.059000000    -0.439000000    -8.090000000
H     2.664000000    -1.176000000    -8.174000000
H     1.892000000    -0.161000000    -8.990000000
O    -0.196000000     3.117000000    -5.381000000
H     0.710000000     3.109000000    -5.072000000
H    -0.482000000     2.207000000    -5.307000000
O    -7.212000000     0.030000000    -4.612000000
H    -7.829000000    -0.519000000    -4.128000000
H    -6.437000000    -0.521000000    -4.722000000
O    -4.414000000    -0.812000000   -10.191000000
H    -3.730000000    -0.966000000    -9.539000000
H    -5.228000000    -0.807000000    -9.687000000
O    -1.594000000     3.216000000    -8.251000000
H    -1.518000000     3.640000000    -7.396000000
H    -0.979000000     2.484000000    -8.211000000
O     1.935000000     5.168000000    -6.779000000
H     2.329000000     4.333000000    -7.029000000
H     1.200000000     5.277000000    -7.382000000
