218
-1445.75780
C    -0.228000000    -5.259000000    -0.470000000
H    -1.032000000    -5.438000000     0.239000000
C     0.870000000    -4.489000000    -0.126000000
C     1.699000000    -4.093000000    -1.151000000
H     2.493000000    -3.409000000    -0.863000000
C     0.983000000    -3.918000000     1.293000000
O     0.123000000    -4.473000000     2.213000000
H     0.650000000    -2.874000000     1.201000000
O     2.357000000    -3.901000000     1.845000000
C     2.755000000    -2.684000000     2.330000000
C     3.624000000    -1.970000000     1.490000000
H     4.013000000    -2.370000000     0.557000000
C     4.080000000    -0.756000000     1.964000000
O     4.784000000     0.041000000     1.023000000
C     3.638000000    -0.205000000     3.136000000
C     4.018000000     1.224000000     3.578000000
H     4.077000000     1.322000000     4.664000000
C     3.173000000     2.357000000     2.964000000
C     2.021000000     2.855000000     3.667000000
H     1.674000000     2.533000000     4.646000000
H     5.064000000     1.318000000     3.281000000
C     2.775000000    -0.984000000     3.949000000
H     2.399000000    -0.611000000     4.898000000
C     2.454000000    -2.277000000     3.599000000
C     1.418000000    -2.972000000     4.444000000
H     1.466000000    -2.627000000     5.479000000
H     1.582000000    -4.051000000     4.475000000
C     0.034000000    -2.746000000     3.938000000
C    -0.676000000    -1.697000000     4.570000000
H    -0.169000000    -1.080000000     5.307000000
C    -0.548000000    -3.538000000     2.980000000
C    -1.901000000    -3.394000000     2.767000000
H    -2.495000000    -4.003000000     2.090000000
C    -2.599000000    -2.362000000     3.348000000
O    -3.786000000    -1.959000000     2.882000000
C    -3.738000000    -0.971000000     1.920000000
C    -4.571000000    -1.384000000     0.701000000
C    -5.074000000    -0.395000000    -0.187000000
H    -4.842000000     0.604000000     0.173000000
C    -4.737000000    -2.708000000     0.388000000
H    -4.340000000    -3.494000000     1.027000000
O    -4.202000000     0.319000000     2.462000000
H    -2.733000000    -0.952000000     1.473000000
C    -2.004000000    -1.437000000     4.212000000
C    -2.680000000    -0.214000000     4.825000000
H    -2.351000000    -0.136000000     5.863000000
H    -3.744000000    -0.451000000     4.876000000
C    -2.408000000     1.075000000     3.985000000
C    -1.475000000     2.045000000     4.360000000
H    -0.876000000     2.031000000     5.267000000
C    -3.229000000     1.229000000     2.836000000
C    -3.022000000     2.369000000     2.045000000
H    -3.717000000     2.568000000     1.232000000
C    -2.003000000     3.226000000     2.319000000
O    -1.756000000     4.247000000     1.409000000
C    -0.710000000     4.057000000     0.514000000
C    -1.138000000     4.405000000    -0.993000000
C    -2.485000000     4.390000000    -1.342000000
H    -3.246000000     4.183000000    -0.593000000
C    -0.183000000     4.631000000    -1.949000000
H     0.860000000     4.635000000    -1.642000000
O     0.403000000     4.844000000     1.078000000
H    -0.478000000     2.983000000     0.454000000
C    -1.216000000     3.074000000     3.474000000
C    -0.127000000     4.076000000     3.811000000
H     0.023000000     4.043000000     4.892000000
H    -0.417000000     5.101000000     3.574000000
C     1.097000000     3.730000000     3.055000000
C     1.348000000     4.162000000     1.746000000
C     2.497000000     3.767000000     1.121000000
H     2.792000000     4.061000000     0.117000000
C     3.436000000     2.864000000     1.749000000
O     4.449000000     2.300000000     0.957000000
C     4.160000000     1.096000000     0.241000000
H     3.066000000     1.002000000     0.177000000
C     4.646000000     1.181000000    -1.229000000
C     5.252000000     0.069000000    -1.766000000
H     5.500000000    -0.803000000    -1.167000000
C     4.511000000     2.416000000    -1.919000000
H     4.175000000     3.325000000    -1.426000000
C     4.939000000     2.441000000    -3.249000000
O     4.900000000     3.655000000    -3.937000000
C     5.491000000     1.266000000    -3.784000000
H     5.807000000     1.265000000    -4.824000000
C     5.673000000     0.133000000    -3.054000000
O     6.205000000    -0.999000000    -3.661000000
C     5.693000000    -2.253000000    -3.324000000
C     4.346000000    -2.494000000    -3.553000000
H     3.720000000    -1.803000000    -4.112000000
C     6.541000000    -3.181000000    -2.853000000
H     7.579000000    -2.865000000    -2.785000000
C     6.028000000    -4.406000000    -2.379000000
H     6.721000000    -5.071000000    -1.870000000
C     4.691000000    -4.721000000    -2.744000000
H     4.269000000    -5.703000000    -2.546000000
C     3.834000000    -3.807000000    -3.264000000
O     2.493000000    -4.091000000    -3.448000000
C     1.582000000    -4.572000000    -2.472000000
C     0.507000000    -5.413000000    -2.748000000
H     0.530000000    -5.756000000    -3.780000000
C    -0.367000000    -5.821000000    -1.755000000
O    -1.472000000    -6.643000000    -2.044000000
C    -2.623000000    -6.479000000    -1.382000000
C    -3.498000000    -5.438000000    -1.528000000
H    -3.327000000    -4.651000000    -2.258000000
C    -2.906000000    -7.361000000    -0.320000000
H    -2.302000000    -8.189000000     0.043000000
C    -4.006000000    -7.218000000     0.522000000
H    -4.170000000    -7.996000000     1.263000000
C    -4.931000000    -6.233000000     0.225000000
H    -5.778000000    -6.054000000     0.882000000
C    -4.678000000    -5.354000000    -0.846000000
O    -5.584000000    -4.397000000    -1.178000000
C    -5.470000000    -3.073000000    -0.769000000
C    -5.960000000    -2.122000000    -1.642000000
H    -6.587000000    -2.442000000    -2.471000000
C    -5.753000000    -0.723000000    -1.361000000
O    -5.988000000     0.340000000    -2.302000000
C    -5.863000000     1.669000000    -1.990000000
C    -5.013000000     2.477000000    -2.739000000
H    -4.219000000     2.005000000    -3.311000000
C    -6.832000000     2.195000000    -1.158000000
H    -7.565000000     1.579000000    -0.643000000
C    -6.905000000     3.642000000    -0.950000000
H    -7.671000000     4.087000000    -0.320000000
C    -6.025000000     4.473000000    -1.711000000
H    -6.216000000     5.532000000    -1.556000000
C    -5.057000000     3.899000000    -2.598000000
O    -4.085000000     4.670000000    -3.125000000
C    -2.824000000     4.613000000    -2.708000000
C    -1.890000000     4.903000000    -3.640000000
H    -2.179000000     5.022000000    -4.681000000
C    -0.558000000     4.822000000    -3.275000000
O     0.380000000     5.152000000    -4.229000000
C     1.692000000     5.392000000    -3.969000000
C     2.057000000     6.671000000    -3.466000000
H     1.460000000     7.579000000    -3.465000000
C     3.424000000     6.900000000    -3.182000000
H     3.754000000     7.915000000    -2.980000000
C     4.370000000     5.838000000    -3.388000000
H     5.404000000     6.074000000    -3.151000000
C     3.902000000     4.629000000    -3.815000000
C     2.591000000     4.417000000    -4.308000000
H     2.266000000     3.470000000    -4.730000000
C    -1.236000000     0.506000000    -2.162000000
H    -2.207000000     0.918000000    -2.424000000
C    -0.930000000     0.686000000    -0.842000000
H    -1.620000000     1.201000000    -0.177000000
C     0.273000000     0.099000000    -0.353000000
C     0.523000000     0.113000000     1.178000000
H     1.223000000    -0.666000000     1.485000000
H     0.924000000     1.075000000     1.505000000
H    -0.436000000    -0.103000000     1.653000000
C     1.189000000    -0.372000000    -1.354000000
H     2.178000000    -0.600000000    -0.965000000
C     0.894000000    -0.429000000    -2.727000000
H     1.628000000    -0.850000000    -3.409000000
C    -0.373000000    -0.008000000    -3.158000000
C    -0.861000000    -0.170000000    -4.578000000
O    -0.135000000    -0.799000000    -5.344000000
O    -1.905000000     0.130000000    -4.937000000
O    -2.135000000     1.790000000    -9.293000000
H    -1.595000000     2.578000000    -9.352000000
H    -1.767000000     1.303000000    -8.555000000
O    -1.553000000     2.638000000    -6.659000000
H    -0.647000000     2.889000000    -6.839000000
H    -1.486000000     1.975000000    -5.972000000
O    -4.685000000     0.235000000    -5.621000000
H    -3.826000000     0.190000000    -5.200000000
H    -4.536000000    -0.100000000    -6.505000000
O     2.132000000     0.987000000    -5.795000000
H     2.751000000     0.537000000    -6.371000000
H     1.535000000     0.299000000    -5.500000000
O    -3.622000000     4.111000000    -6.941000000
H    -4.446000000     3.678000000    -6.719000000
H    -2.959000000     3.427000000    -6.850000000
O     1.390000000     1.229000000    -9.567000000
H     0.800000000     0.518000000    -9.320000000
H     1.252000000     1.899000000    -8.897000000
O     0.735000000    -3.309000000    -5.830000000
H     1.355000000    -3.386000000    -5.106000000
H     0.334000000    -2.448000000    -5.712000000
O    -5.907000000     2.456000000    -6.556000000
H    -6.619000000     2.133000000    -6.003000000
H    -5.257000000     1.753000000    -6.544000000
O     2.857000000    -2.221000000    -7.659000000
H     2.073000000    -2.195000000    -7.110000000
H     2.530000000    -2.092000000    -8.549000000
O    -0.234000000    -5.569000000    -6.690000000
H     0.513000000    -6.167000000    -6.667000000
H     0.157000000    -4.696000000    -6.657000000
O    -0.609000000    -0.209000000    -8.217000000
H    -0.789000000    -1.113000000    -8.474000000
H    -0.545000000    -0.239000000    -7.263000000
O     4.138000000     2.944000000    -7.397000000
H     4.872000000     2.781000000    -7.989000000
H     4.118000000     2.176000000    -6.825000000
O    -2.956000000    -2.457000000    -5.989000000
H    -2.846000000    -1.510000000    -6.074000000
H    -2.256000000    -2.727000000    -5.394000000
O     0.992000000     2.854000000    -7.225000000
H     1.801000000     3.364000000    -7.224000000
H     1.221000000     2.041000000    -6.774000000
O     4.184000000     0.077000000    -7.155000000
H     3.821000000    -0.801000000    -7.266000000
H     5.013000000     0.055000000    -7.633000000
O    -4.249000000    -0.052000000    -8.243000000
H    -5.022000000     0.104000000    -8.785000000
H    -3.529000000     0.347000000    -8.732000000
O     4.008000000    -4.606000000    -6.484000000
H     3.602000000    -3.768000000    -6.702000000
H     4.923000000    -4.390000000    -6.304000000
O    -5.468000000    -3.407000000    -6.525000000
H    -5.276000000    -4.326000000    -6.711000000
H    -4.620000000    -3.025000000    -6.302000000
O    -1.925000000    -3.014000000    -8.888000000
H    -2.423000000    -3.298000000    -9.655000000
H    -2.590000000    -2.835000000    -8.224000000
