218
-1446.86113
C     0.021000000    -4.478000000    -1.366000000
H    -0.900000000    -4.326000000    -0.809000000
C     1.287000000    -4.191000000    -0.808000000
C     2.401000000    -4.323000000    -1.658000000
H     3.391000000    -4.094000000    -1.272000000
C     1.359000000    -3.688000000     0.659000000
O     0.498000000    -4.511000000     1.469000000
H     1.078000000    -2.625000000     0.686000000
O     2.719000000    -3.893000000     1.114000000
C     3.282000000    -2.872000000     1.735000000
C     4.112000000    -1.981000000     1.057000000
H     4.476000000    -2.219000000     0.061000000
C     4.376000000    -0.723000000     1.579000000
O     5.010000000     0.211000000     0.814000000
C     4.015000000    -0.416000000     2.870000000
C     4.302000000     0.924000000     3.444000000
H     4.335000000     0.813000000     4.530000000
C     3.199000000     1.929000000     3.052000000
C     2.137000000     2.233000000     3.873000000
H     2.037000000     1.841000000     4.882000000
H     5.290000000     1.321000000     3.201000000
C     3.240000000    -1.338000000     3.590000000
H     3.034000000    -1.152000000     4.641000000
C     2.831000000    -2.568000000     3.086000000
C     1.807000000    -3.457000000     3.841000000
H     2.008000000    -3.287000000     4.900000000
H     1.982000000    -4.527000000     3.707000000
C     0.367000000    -3.200000000     3.466000000
C    -0.384000000    -2.314000000     4.227000000
H     0.063000000    -1.713000000     5.015000000
C    -0.262000000    -3.819000000     2.345000000
C    -1.628000000    -3.634000000     2.063000000
H    -2.016000000    -4.092000000     1.157000000
C    -2.319000000    -2.708000000     2.873000000
O    -3.588000000    -2.324000000     2.470000000
C    -3.751000000    -1.103000000     1.726000000
C    -4.678000000    -1.292000000     0.611000000
C    -5.464000000    -0.290000000     0.150000000
H    -5.412000000     0.660000000     0.675000000
C    -4.744000000    -2.546000000     0.007000000
H    -4.129000000    -3.401000000     0.277000000
O    -4.183000000    -0.068000000     2.629000000
H    -2.798000000    -0.831000000     1.248000000
C    -1.671000000    -2.092000000     3.932000000
C    -2.501000000    -1.080000000     4.750000000
H    -2.320000000    -1.063000000     5.827000000
H    -3.572000000    -1.287000000     4.687000000
C    -2.369000000     0.350000000     4.137000000
C    -1.404000000     1.232000000     4.592000000
H    -0.835000000     1.014000000     5.492000000
C    -3.263000000     0.802000000     3.154000000
C    -3.200000000     2.112000000     2.628000000
H    -3.870000000     2.325000000     1.799000000
C    -2.241000000     2.973000000     3.103000000
O    -2.088000000     4.138000000     2.378000000
C    -1.065000000     4.002000000     1.398000000
C    -1.490000000     4.733000000     0.108000000
C    -2.813000000     4.659000000    -0.349000000
H    -3.523000000     4.128000000     0.279000000
C    -0.502000000     5.341000000    -0.718000000
H     0.542000000     5.396000000    -0.418000000
O     0.149000000     4.525000000     1.861000000
H    -0.935000000     2.939000000     1.150000000
C    -1.316000000     2.562000000     4.124000000
C    -0.006000000     3.384000000     4.498000000
H     0.270000000     3.181000000     5.535000000
H    -0.322000000     4.429000000     4.465000000
C     1.111000000     3.105000000     3.480000000
C     1.229000000     3.755000000     2.290000000
C     2.316000000     3.590000000     1.433000000
H     2.333000000     3.894000000     0.390000000
C     3.316000000     2.619000000     1.793000000
O     4.233000000     2.402000000     0.762000000
C     4.118000000     1.108000000     0.182000000
H     3.122000000     0.701000000     0.407000000
C     4.273000000     1.080000000    -1.314000000
C     5.039000000     0.145000000    -2.021000000
H     5.510000000    -0.665000000    -1.469000000
C     3.668000000     2.095000000    -2.079000000
H     3.029000000     2.800000000    -1.554000000
C     3.713000000     2.151000000    -3.446000000
O     3.062000000     3.159000000    -4.104000000
C     4.423000000     1.174000000    -4.160000000
H     4.516000000     1.272000000    -5.238000000
C     5.105000000     0.194000000    -3.444000000
O     5.794000000    -0.854000000    -4.128000000
C     5.798000000    -2.220000000    -3.732000000
C     4.580000000    -2.842000000    -3.830000000
H     3.702000000    -2.262000000    -4.103000000
C     6.927000000    -2.956000000    -3.371000000
H     7.769000000    -2.284000000    -3.226000000
C     6.923000000    -4.321000000    -3.057000000
H     7.872000000    -4.773000000    -2.783000000
C     5.708000000    -5.014000000    -3.349000000
H     5.583000000    -6.071000000    -3.129000000
C     4.550000000    -4.286000000    -3.734000000
O     3.345000000    -4.880000000    -3.900000000
C     2.226000000    -4.746000000    -3.015000000
C     0.968000000    -5.060000000    -3.492000000
H     0.914000000    -5.415000000    -4.518000000
C    -0.122000000    -4.930000000    -2.684000000
O    -1.388000000    -5.118000000    -3.299000000
C    -2.535000000    -5.430000000    -2.575000000
C    -3.573000000    -4.573000000    -2.574000000
H    -3.604000000    -3.734000000    -3.265000000
C    -2.652000000    -6.617000000    -1.819000000
H    -1.725000000    -7.168000000    -1.679000000
C    -3.734000000    -6.889000000    -0.999000000
H    -3.653000000    -7.666000000    -0.243000000
C    -4.800000000    -5.962000000    -0.987000000
H    -5.657000000    -6.137000000    -0.341000000
C    -4.762000000    -4.803000000    -1.831000000
O    -5.724000000    -3.912000000    -1.791000000
C    -5.592000000    -2.719000000    -1.107000000
C    -6.315000000    -1.664000000    -1.591000000
H    -6.861000000    -1.783000000    -2.524000000
C    -6.212000000    -0.425000000    -0.922000000
O    -6.722000000     0.705000000    -1.529000000
C    -6.484000000     2.037000000    -1.126000000
C    -5.445000000     2.848000000    -1.704000000
H    -4.819000000     2.444000000    -2.497000000
C    -7.306000000     2.632000000    -0.140000000
H    -8.099000000     2.041000000     0.313000000
C    -7.114000000     4.007000000     0.162000000
H    -7.717000000     4.479000000     0.933000000
C    -6.162000000     4.802000000    -0.525000000
H    -6.022000000     5.852000000    -0.281000000
C    -5.340000000     4.197000000    -1.441000000
O    -4.405000000     4.996000000    -2.065000000
C    -3.190000000     5.252000000    -1.495000000
C    -2.221000000     5.870000000    -2.317000000
H    -2.469000000     6.380000000    -3.244000000
C    -0.911000000     5.861000000    -1.929000000
O     0.024000000     6.450000000    -2.746000000
C     1.339000000     6.066000000    -2.828000000
C     2.416000000     6.844000000    -2.390000000
H     2.266000000     7.752000000    -1.812000000
C     3.752000000     6.388000000    -2.480000000
H     4.609000000     6.847000000    -1.994000000
C     3.987000000     5.146000000    -3.162000000
H     4.999000000     4.761000000    -3.261000000
C     2.883000000     4.394000000    -3.648000000
C     1.600000000     4.903000000    -3.517000000
H     0.693000000     4.407000000    -3.852000000
C    -1.276000000     1.454000000    -2.402000000
H    -2.110000000     2.101000000    -2.659000000
C    -1.218000000     1.094000000    -1.031000000
H    -2.108000000     1.247000000    -0.426000000
C    -0.138000000     0.388000000    -0.504000000
C    -0.118000000     0.079000000     0.936000000
H    -0.811000000     0.637000000     1.569000000
H    -0.458000000    -0.957000000     0.995000000
H     0.906000000     0.097000000     1.315000000
C     0.910000000     0.027000000    -1.386000000
H     1.752000000    -0.524000000    -0.975000000
C     0.847000000     0.408000000    -2.750000000
H     1.675000000     0.180000000    -3.416000000
C    -0.239000000     1.083000000    -3.278000000
C    -0.243000000     1.560000000    -4.646000000
O     0.505000000     1.124000000    -5.482000000
O    -1.076000000     2.365000000    -4.980000000
O     5.760000000     3.841000000    -5.445000000
H     4.956000000     3.435000000    -5.120000000
H     6.189000000     3.150000000    -5.950000000
O     3.559000000     6.049000000    -6.252000000
H     4.121000000     6.823000000    -6.210000000
H     3.792000000     5.542000000    -5.474000000
O    -2.373000000    -3.864000000    -6.018000000
H    -3.026000000    -3.306000000    -6.441000000
H    -2.834000000    -4.250000000    -5.274000000
O    -5.065000000    -1.360000000    -5.213000000
H    -4.526000000    -0.675000000    -5.609000000
H    -5.725000000    -0.884000000    -4.708000000
O    -2.175000000    -0.410000000    -6.363000000
H    -1.473000000     0.081000000    -5.936000000
H    -1.722000000    -1.013000000    -6.952000000
O     4.189000000     1.719000000    -7.993000000
H     4.805000000     1.003000000    -7.841000000
H     3.327000000     1.325000000    -7.860000000
O     2.277000000    -1.141000000    -9.745000000
H     2.534000000    -0.949000000    -8.843000000
H     2.979000000    -0.768000000   -10.278000000
O    -4.521000000     0.901000000    -7.568000000
H    -4.158000000     1.354000000    -6.808000000
H    -3.763000000     0.497000000    -7.991000000
O    -1.435000000     7.749000000    -5.686000000
H    -1.468000000     6.816000000    -5.474000000
H    -2.069000000     7.856000000    -6.395000000
O     1.883000000    -0.754000000    -6.879000000
H     1.200000000    -1.419000000    -6.797000000
H     1.560000000    -0.014000000    -6.364000000
O     1.201000000     2.167000000    -8.310000000
H     1.231000000     1.830000000    -7.415000000
H     1.810000000     2.906000000    -8.308000000
O    -0.368000000    -2.588000000    -7.343000000
H    -0.527000000    -3.107000000    -8.131000000
H    -1.026000000    -2.894000000    -6.718000000
O    -3.576000000     2.654000000    -5.765000000
H    -3.928000000     3.245000000    -5.099000000
H    -2.698000000     2.437000000    -5.453000000
O     2.909000000     4.101000000    -8.116000000
H     3.060000000     4.796000000    -7.476000000
H     3.517000000     3.407000000    -7.864000000
O    -3.265000000     2.552000000   -10.603000000
H    -4.084000000     2.104000000   -10.394000000
H    -2.628000000     2.185000000    -9.990000000
O    -1.638000000     5.862000000    -8.753000000
H    -2.019000000     6.731000000    -8.624000000
H    -0.931000000     5.813000000    -8.110000000
O    -3.878000000     4.769000000    -7.590000000
H    -3.154000000     4.830000000    -8.213000000
H    -3.827000000     3.875000000    -7.252000000
O    -1.433000000     2.258000000    -8.844000000
H    -0.498000000     2.066000000    -8.767000000
H    -1.777000000     2.134000000    -7.959000000
O    -0.664000000     4.581000000    -6.192000000
H    -0.961000000     3.849000000    -5.651000000
H     0.116000000     4.250000000    -6.637000000
