218
-1496.37823
C    -0.159000000    -4.427000000    -0.848000000
H    -1.061000000    -4.070000000    -0.357000000
C     1.105000000    -4.470000000    -0.237000000
C     2.219000000    -4.959000000    -0.915000000
H     3.193000000    -4.984000000    -0.432000000
C     1.263000000    -3.853000000     1.135000000
O     0.205000000    -4.329000000     2.047000000
H     1.196000000    -2.784000000     0.883000000
O     2.560000000    -4.068000000     1.740000000
C     3.145000000    -2.986000000     2.340000000
C     4.012000000    -2.277000000     1.523000000
H     4.263000000    -2.747000000     0.575000000
C     4.342000000    -0.983000000     1.807000000
O     4.967000000    -0.310000000     0.826000000
C     3.938000000    -0.410000000     3.018000000
C     4.327000000     0.980000000     3.375000000
H     4.436000000     1.050000000     4.459000000
C     3.336000000     1.988000000     2.791000000
C     2.273000000     2.411000000     3.566000000
H     2.083000000     1.968000000     4.540000000
H     5.323000000     1.090000000     2.940000000
C     3.156000000    -1.112000000     3.959000000
H     2.981000000    -0.782000000     4.979000000
C     2.603000000    -2.355000000     3.495000000
C     1.557000000    -3.096000000     4.311000000
H     1.676000000    -2.866000000     5.372000000
H     1.693000000    -4.168000000     4.160000000
C     0.182000000    -2.758000000     3.835000000
C    -0.490000000    -1.661000000     4.420000000
H    -0.091000000    -1.032000000     5.212000000
C    -0.450000000    -3.478000000     2.840000000
C    -1.790000000    -3.148000000     2.532000000
H    -2.252000000    -3.607000000     1.662000000
C    -2.523000000    -2.131000000     3.199000000
O    -3.779000000    -1.768000000     2.825000000
C    -3.942000000    -0.563000000     1.997000000
C    -4.847000000    -0.806000000     0.797000000
C    -5.522000000     0.306000000     0.202000000
H    -5.388000000     1.227000000     0.764000000
C    -4.994000000    -2.007000000     0.185000000
H    -4.448000000    -2.855000000     0.590000000
O    -4.287000000     0.470000000     2.839000000
H    -2.918000000    -0.442000000     1.614000000
C    -1.839000000    -1.403000000     4.180000000
C    -2.576000000    -0.336000000     4.958000000
H    -2.257000000    -0.186000000     5.992000000
H    -3.637000000    -0.573000000     5.060000000
C    -2.416000000     0.993000000     4.248000000
C    -1.320000000     1.792000000     4.491000000
H    -0.650000000     1.517000000     5.301000000
C    -3.238000000     1.297000000     3.145000000
C    -3.006000000     2.354000000     2.287000000
H    -3.647000000     2.565000000     1.435000000
C    -1.932000000     3.178000000     2.574000000
O    -1.693000000     4.157000000     1.659000000
C    -0.683000000     3.899000000     0.759000000
C    -1.156000000     4.365000000    -0.634000000
C    -2.490000000     4.251000000    -0.990000000
H    -3.212000000     3.816000000    -0.304000000
C    -0.250000000     4.772000000    -1.614000000
H     0.789000000     4.925000000    -1.333000000
O     0.564000000     4.646000000     1.166000000
H    -0.465000000     2.821000000     0.731000000
C    -1.073000000     2.914000000     3.655000000
C     0.153000000     3.731000000     3.968000000
H     0.419000000     3.654000000     5.024000000
H     0.089000000     4.803000000     3.769000000
C     1.331000000     3.294000000     3.113000000
C     1.532000000     3.845000000     1.814000000
C     2.618000000     3.416000000     1.045000000
H     2.847000000     3.801000000     0.054000000
C     3.492000000     2.456000000     1.492000000
O     4.466000000     1.959000000     0.557000000
C     4.229000000     0.581000000     0.023000000
H     3.151000000     0.383000000     0.113000000
C     4.640000000     0.610000000    -1.424000000
C     5.005000000    -0.540000000    -2.099000000
H     5.185000000    -1.460000000    -1.549000000
C     4.380000000     1.736000000    -2.218000000
H     3.944000000     2.614000000    -1.749000000
C     4.499000000     1.710000000    -3.603000000
O     3.998000000     2.729000000    -4.384000000
C     4.973000000     0.557000000    -4.208000000
H     5.087000000     0.539000000    -5.289000000
C     5.197000000    -0.553000000    -3.476000000
O     5.581000000    -1.691000000    -4.143000000
C     5.483000000    -2.973000000    -3.595000000
C     4.253000000    -3.678000000    -3.515000000
H     3.333000000    -3.148000000    -3.747000000
C     6.630000000    -3.665000000    -3.232000000
H     7.590000000    -3.168000000    -3.353000000
C     6.593000000    -5.037000000    -2.871000000
H     7.515000000    -5.574000000    -2.665000000
C     5.387000000    -5.697000000    -2.902000000
H     5.376000000    -6.770000000    -2.728000000
C     4.208000000    -5.006000000    -3.128000000
O     2.980000000    -5.626000000    -3.120000000
C     1.974000000    -5.296000000    -2.258000000
C     0.737000000    -5.226000000    -2.848000000
H     0.594000000    -5.551000000    -3.876000000
C    -0.352000000    -4.895000000    -2.082000000
O    -1.574000000    -4.735000000    -2.654000000
C    -2.799000000    -5.033000000    -2.056000000
C    -3.838000000    -4.044000000    -2.106000000
H    -3.691000000    -3.093000000    -2.610000000
C    -2.926000000    -6.183000000    -1.284000000
H    -2.095000000    -6.857000000    -1.092000000
C    -4.129000000    -6.462000000    -0.628000000
H    -4.201000000    -7.379000000    -0.050000000
C    -5.223000000    -5.550000000    -0.695000000
H    -6.184000000    -5.740000000    -0.224000000
C    -5.023000000    -4.361000000    -1.480000000
O    -6.000000000    -3.361000000    -1.513000000
C    -5.874000000    -2.150000000    -0.943000000
C    -6.581000000    -1.035000000    -1.475000000
H    -7.302000000    -1.307000000    -2.242000000
C    -6.396000000     0.183000000    -0.844000000
O    -7.246000000     1.236000000    -1.248000000
C    -6.889000000     2.522000000    -1.141000000
C    -5.830000000     2.985000000    -1.969000000
H    -5.340000000     2.327000000    -2.681000000
C    -7.398000000     3.273000000    -0.120000000
H    -8.085000000     2.836000000     0.600000000
C    -6.835000000     4.552000000     0.104000000
H    -7.206000000     5.168000000     0.919000000
C    -5.891000000     5.091000000    -0.762000000
H    -5.451000000     6.055000000    -0.520000000
C    -5.270000000     4.229000000    -1.683000000
O    -4.305000000     4.663000000    -2.543000000
C    -3.010000000     4.758000000    -2.209000000
C    -2.065000000     5.238000000    -3.121000000
H    -2.462000000     5.627000000    -4.055000000
C    -0.695000000     5.196000000    -2.873000000
O     0.269000000     5.689000000    -3.777000000
C     1.646000000     5.485000000    -3.693000000
C     2.502000000     6.478000000    -3.287000000
H     2.130000000     7.478000000    -3.077000000
C     3.838000000     6.229000000    -3.166000000
H     4.533000000     7.060000000    -3.076000000
C     4.407000000     4.933000000    -3.433000000
H     5.433000000     4.591000000    -3.320000000
C     3.499000000     3.978000000    -3.901000000
C     2.134000000     4.195000000    -3.928000000
H     1.463000000     3.477000000    -4.392000000
C    -1.314000000     0.741000000    -1.981000000
H    -2.165000000     1.221000000    -2.457000000
C    -1.291000000     0.481000000    -0.580000000
H    -2.073000000     0.927000000     0.029000000
C    -0.159000000    -0.154000000     0.040000000
C     0.005000000    -0.239000000     1.504000000
H    -0.603000000     0.516000000     2.007000000
H    -0.361000000    -1.241000000     1.735000000
H     1.040000000    -0.210000000     1.853000000
C     0.895000000    -0.481000000    -0.762000000
H     1.729000000    -1.048000000    -0.357000000
C     0.851000000    -0.345000000    -2.105000000
H     1.729000000    -0.631000000    -2.678000000
C    -0.209000000     0.314000000    -2.693000000
C    -0.193000000     0.511000000    -4.229000000
O     0.746000000     0.054000000    -4.882000000
O    -1.033000000     1.153000000    -4.798000000
O    -1.195000000     1.105000000    -7.694000000
H    -0.549000000     0.565000000    -8.148000000
H    -1.019000000     0.960000000    -6.764000000
O     1.843000000     0.813000000   -10.479000000
H     2.778000000     0.651000000   -10.351000000
H     1.581000000     1.322000000    -9.712000000
O    -4.137000000    -3.445000000    -5.356000000
H    -4.548000000    -2.590000000    -5.230000000
H    -3.208000000    -3.291000000    -5.182000000
O    -6.077000000     2.013000000    -5.120000000
H    -6.595000000     2.806000000    -5.260000000
H    -5.175000000     2.282000000    -5.295000000
O     0.019000000    -1.937000000    -6.427000000
H     0.118000000    -1.167000000    -5.867000000
H    -0.145000000    -1.579000000    -7.300000000
O    -5.861000000    -1.289000000    -5.007000000
H    -5.189000000    -0.736000000    -5.406000000
H    -6.638000000    -0.731000000    -4.966000000
O    -3.880000000     0.069000000    -6.092000000
H    -3.697000000     0.959000000    -5.792000000
H    -3.019000000    -0.343000000    -6.161000000
O     5.184000000    -1.156000000    -7.556000000
H     5.824000000    -1.390000000    -6.884000000
H     4.336000000    -1.240000000    -7.120000000
O    -5.148000000    -0.663000000    -8.869000000
H    -4.762000000    -0.458000000    -8.017000000
H    -4.396000000    -0.825000000    -9.440000000
O     2.801000000    -1.196000000    -6.507000000
H     2.123000000    -1.834000000    -6.729000000
H     2.449000000    -0.725000000    -5.752000000
O     1.883000000     1.846000000    -6.560000000
H     2.586000000     2.076000000    -5.953000000
H     1.424000000     1.122000000    -6.134000000
O     0.525000000    -1.078000000    -8.965000000
H     0.994000000    -0.571000000    -9.628000000
H     0.690000000    -1.991000000    -9.199000000
O    -1.215000000    -4.310000000    -5.636000000
H    -1.160000000    -4.534000000    -4.707000000
H    -0.639000000    -3.552000000    -5.734000000
O    -3.354000000     2.509000000    -4.846000000
H    -3.599000000     2.976000000    -4.048000000
H    -2.602000000     1.975000000    -4.589000000
O     1.744000000     3.188000000    -8.900000000
H     1.745000000     2.619000000    -8.130000000
H     2.613000000     3.590000000    -8.901000000
O    -2.525000000    -0.239000000    -9.631000000
H    -2.208000000     0.034000000    -8.770000000
H    -2.621000000     0.578000000   -10.121000000
O    -2.500000000     3.193000000    -9.518000000
H    -2.999000000     3.991000000    -9.349000000
H    -2.199000000     2.911000000    -8.654000000
O    -3.217000000     4.536000000    -6.587000000
H    -2.292000000     4.631000000    -6.816000000
H    -3.283000000     3.655000000    -6.219000000
O    -0.554000000     4.998000000    -6.932000000
H    -0.083000000     5.805000000    -6.722000000
H     0.075000000     4.300000000    -6.752000000
