218
-1447.28094
C    -1.983000000    -3.981000000    -1.085000000
H    -2.639000000    -3.396000000    -0.446000000
C    -0.724000000    -4.390000000    -0.539000000
C     0.101000000    -5.185000000    -1.387000000
H     1.022000000    -5.620000000    -1.008000000
C    -0.303000000    -3.932000000     0.866000000
O    -1.301000000    -4.156000000     1.877000000
H    -0.025000000    -2.868000000     0.855000000
O     0.944000000    -4.611000000     1.296000000
C     1.992000000    -3.806000000     1.774000000
C     2.989000000    -3.377000000     0.925000000
H     2.956000000    -3.689000000    -0.115000000
C     3.830000000    -2.336000000     1.345000000
O     4.681000000    -1.791000000     0.463000000
C     3.758000000    -1.802000000     2.653000000
C     4.652000000    -0.663000000     3.110000000
H     4.756000000    -0.879000000     4.175000000
C     4.041000000     0.713000000     2.775000000
C     3.148000000     1.364000000     3.544000000
H     2.889000000     0.872000000     4.478000000
H     5.650000000    -0.727000000     2.671000000
C     2.802000000    -2.206000000     3.499000000
H     2.743000000    -1.869000000     4.531000000
C     1.934000000    -3.254000000     3.097000000
C     0.766000000    -3.624000000     4.061000000
H     1.041000000    -3.462000000     5.105000000
H     0.543000000    -4.689000000     3.970000000
C    -0.512000000    -2.745000000     3.837000000
C    -0.773000000    -1.653000000     4.678000000
H    -0.059000000    -1.492000000     5.481000000
C    -1.477000000    -3.186000000     2.900000000
C    -2.677000000    -2.533000000     2.824000000
H    -3.515000000    -2.927000000     2.255000000
C    -2.893000000    -1.395000000     3.589000000
O    -4.000000000    -0.719000000     3.251000000
C    -3.856000000     0.393000000     2.337000000
C    -4.903000000     0.428000000     1.182000000
C    -4.987000000     1.569000000     0.357000000
H    -4.440000000     2.483000000     0.573000000
C    -5.633000000    -0.708000000     0.860000000
H    -5.581000000    -1.614000000     1.458000000
O    -3.758000000     1.635000000     3.022000000
H    -2.823000000     0.332000000     1.963000000
C    -2.008000000    -1.002000000     4.541000000
C    -2.367000000     0.281000000     5.273000000
H    -1.827000000     0.278000000     6.222000000
H    -3.423000000     0.334000000     5.549000000
C    -1.793000000     1.430000000     4.515000000
C    -0.491000000     1.890000000     4.756000000
H     0.096000000     1.348000000     5.494000000
C    -2.522000000     2.078000000     3.442000000
C    -1.885000000     3.032000000     2.705000000
H    -2.464000000     3.369000000     1.849000000
C    -0.621000000     3.492000000     2.933000000
O    -0.117000000     4.442000000     2.112000000
C     0.805000000     4.042000000     1.101000000
C     0.587000000     4.814000000    -0.133000000
C    -0.723000000     5.018000000    -0.551000000
H    -1.511000000     4.836000000     0.176000000
C     1.663000000     5.006000000    -1.033000000
H     2.713000000     4.897000000    -0.775000000
O     2.142000000     4.207000000     1.536000000
H     0.694000000     3.004000000     0.755000000
C     0.122000000     2.842000000     3.905000000
C     1.522000000     3.218000000     4.147000000
H     1.763000000     2.795000000     5.124000000
H     1.653000000     4.297000000     4.247000000
C     2.500000000     2.557000000     3.190000000
C     2.788000000     3.046000000     1.911000000
C     3.731000000     2.462000000     1.050000000
H     3.825000000     2.883000000     0.052000000
C     4.307000000     1.295000000     1.493000000
O     5.020000000     0.604000000     0.579000000
C     4.354000000    -0.516000000    -0.065000000
H     3.270000000    -0.350000000     0.010000000
C     4.575000000    -0.556000000    -1.631000000
C     4.139000000    -1.629000000    -2.403000000
H     3.869000000    -2.545000000    -1.885000000
C     4.946000000     0.649000000    -2.251000000
H     5.066000000     1.549000000    -1.654000000
C     4.905000000     0.702000000    -3.687000000
O     5.109000000     1.903000000    -4.327000000
C     4.520000000    -0.408000000    -4.382000000
H     4.429000000    -0.373000000    -5.464000000
C     4.150000000    -1.604000000    -3.800000000
O     3.751000000    -2.660000000    -4.542000000
C     3.488000000    -3.927000000    -3.970000000
C     2.209000000    -4.477000000    -4.034000000
H     1.325000000    -4.014000000    -4.465000000
C     4.543000000    -4.745000000    -3.496000000
H     5.582000000    -4.425000000    -3.493000000
C     4.298000000    -5.990000000    -2.872000000
H     5.124000000    -6.566000000    -2.462000000
C     2.988000000    -6.467000000    -2.833000000
H     2.846000000    -7.459000000    -2.412000000
C     1.996000000    -5.717000000    -3.453000000
O     0.735000000    -6.105000000    -3.482000000
C    -0.182000000    -5.384000000    -2.679000000
C    -1.405000000    -5.004000000    -3.184000000
H    -1.651000000    -5.114000000    -4.237000000
C    -2.274000000    -4.210000000    -2.431000000
O    -3.494000000    -3.887000000    -3.020000000
C    -4.671000000    -3.963000000    -2.335000000
C    -5.345000000    -2.804000000    -1.970000000
H    -4.796000000    -1.867000000    -2.018000000
C    -5.284000000    -5.207000000    -2.086000000
H    -4.821000000    -6.105000000    -2.485000000
C    -6.423000000    -5.357000000    -1.325000000
H    -6.787000000    -6.337000000    -1.026000000
C    -7.035000000    -4.173000000    -0.861000000
H    -7.865000000    -4.218000000    -0.161000000
C    -6.472000000    -2.883000000    -1.164000000
O    -7.078000000    -1.826000000    -0.638000000
C    -6.436000000    -0.652000000    -0.287000000
C    -6.467000000     0.476000000    -1.084000000
H    -7.035000000     0.525000000    -2.009000000
C    -5.767000000     1.587000000    -0.740000000
O    -5.755000000     2.635000000    -1.628000000
C    -5.182000000     3.846000000    -1.386000000
C    -3.899000000     4.138000000    -1.921000000
H    -3.207000000     3.446000000    -2.395000000
C    -6.015000000     4.884000000    -0.880000000
H    -7.051000000     4.647000000    -0.652000000
C    -5.606000000     6.148000000    -0.817000000
H    -6.218000000     7.004000000    -0.546000000
C    -4.257000000     6.446000000    -1.253000000
H    -3.856000000     7.456000000    -1.239000000
C    -3.445000000     5.449000000    -1.770000000
O    -2.252000000     5.810000000    -2.288000000
C    -0.967000000     5.506000000    -1.835000000
C     0.095000000     5.628000000    -2.729000000
H    -0.048000000     5.896000000    -3.773000000
C     1.394000000     5.400000000    -2.324000000
O     2.404000000     5.536000000    -3.267000000
C     3.674000000     5.045000000    -3.271000000
C     4.745000000     5.675000000    -2.581000000
H     4.572000000     6.626000000    -2.083000000
C     5.918000000     5.005000000    -2.412000000
H     6.646000000     5.444000000    -1.733000000
C     6.142000000     3.776000000    -3.091000000
H     7.077000000     3.246000000    -2.931000000
C     4.999000000     3.142000000    -3.712000000
C     3.794000000     3.770000000    -3.795000000
H     2.875000000     3.293000000    -4.124000000
C    -1.622000000     0.225000000    -2.035000000
H    -2.456000000     0.856000000    -2.332000000
C    -1.054000000     0.432000000    -0.717000000
H    -1.381000000     1.250000000    -0.080000000
C    -0.014000000    -0.384000000    -0.318000000
C     0.632000000    -0.113000000     0.995000000
H     1.179000000     0.822000000     0.853000000
H    -0.079000000     0.116000000     1.792000000
H     1.204000000    -0.969000000     1.359000000
C     0.482000000    -1.338000000    -1.172000000
H     1.403000000    -1.847000000    -0.899000000
C    -0.001000000    -1.468000000    -2.515000000
H     0.485000000    -2.151000000    -3.207000000
C    -1.100000000    -0.747000000    -2.927000000
C    -1.685000000    -0.931000000    -4.358000000
O    -1.170000000    -1.570000000    -5.212000000
O    -2.663000000    -0.335000000    -4.644000000
O     2.678000000    -1.128000000    -7.468000000
H     2.600000000    -0.698000000    -8.320000000
H     3.366000000    -1.782000000    -7.592000000
O    -5.119000000    -3.605000000    -6.010000000
H    -4.851000000    -2.696000000    -6.147000000
H    -4.315000000    -4.055000000    -5.749000000
O    -5.236000000    -0.772000000    -5.634000000
H    -5.659000000    -1.360000000    -5.009000000
H    -4.323000000    -0.736000000    -5.349000000
O    -6.638000000     1.494000000    -7.073000000
H    -6.040000000     0.817000000    -6.757000000
H    -7.049000000     1.840000000    -6.280000000
O    -2.493000000     0.639000000   -10.700000000
H    -1.663000000     0.587000000   -10.226000000
H    -3.160000000     0.658000000   -10.013000000
O    -7.403000000    -5.341000000    -4.477000000
H    -7.945000000    -4.875000000    -5.114000000
H    -6.683000000    -4.739000000    -4.290000000
O    -0.005000000     2.869000000    -4.655000000
H     0.279000000     2.813000000    -3.743000000
H     0.268000000     2.038000000    -5.043000000
O    -5.247000000    -3.936000000    -9.629000000
H    -5.978000000    -3.567000000   -10.124000000
H    -5.108000000    -3.318000000    -8.911000000
O     0.219000000    -2.866000000    -7.241000000
H     0.827000000    -2.209000000    -7.580000000
H    -0.205000000    -2.438000000    -6.496000000
O    -1.537000000     4.490000000    -6.190000000
H    -2.436000000     4.361000000    -5.887000000
H    -1.006000000     3.953000000    -5.601000000
O     0.808000000     0.467000000    -5.777000000
H     1.610000000     0.146000000    -6.188000000
H     0.241000000    -0.303000000    -5.724000000
O    -0.518000000    -3.947000000    -9.730000000
H     0.281000000    -4.402000000    -9.998000000
H    -0.278000000    -3.500000000    -8.918000000
O    -3.857000000     0.980000000    -7.917000000
H    -3.437000000     0.855000000    -7.066000000
H    -4.085000000     1.910000000    -7.936000000
O     1.286000000     1.306000000    -2.836000000
H     1.584000000     1.019000000    -3.699000000
H     0.813000000     0.552000000    -2.483000000
O    -4.434000000     3.884000000    -5.559000000
H    -5.236000000     3.394000000    -5.737000000
H    -3.850000000     3.247000000    -5.147000000
O    -2.623000000     2.211000000    -4.943000000
H    -1.700000000     2.337000000    -5.167000000
H    -2.714000000     1.266000000    -4.825000000
O    -2.913000000    -2.192000000    -7.079000000
H    -2.252000000    -2.224000000    -6.387000000
H    -3.509000000    -1.494000000    -6.809000000
O    -5.681000000    -1.108000000    -9.082000000
H    -5.611000000    -0.883000000   -10.010000000
H    -5.243000000    -0.389000000    -8.627000000
O    -2.735000000    -4.953000000    -7.710000000
H    -2.076000000    -4.920000000    -8.403000000
H    -2.915000000    -4.035000000    -7.507000000
