218
-1486.30858
C    -2.302000000    -4.324000000    -0.698000000
H    -2.979000000    -3.712000000    -0.107000000
C    -1.001000000    -4.624000000    -0.195000000
C    -0.091000000    -5.266000000    -1.049000000
H     0.880000000    -5.636000000    -0.731000000
C    -0.575000000    -4.111000000     1.216000000
O    -1.579000000    -4.210000000     2.245000000
H    -0.365000000    -3.047000000     1.029000000
O     0.701000000    -4.622000000     1.648000000
C     1.632000000    -3.755000000     2.118000000
C     2.699000000    -3.490000000     1.327000000
H     2.740000000    -3.982000000     0.359000000
C     3.631000000    -2.484000000     1.692000000
O     4.513000000    -2.084000000     0.702000000
C     3.608000000    -1.925000000     2.943000000
C     4.571000000    -0.737000000     3.299000000
H     4.658000000    -0.590000000     4.377000000
C     3.920000000     0.533000000     2.748000000
C     3.142000000     1.310000000     3.672000000
H     2.977000000     0.999000000     4.701000000
H     5.616000000    -0.873000000     3.014000000
C     2.541000000    -2.318000000     3.797000000
H     2.370000000    -1.849000000     4.762000000
C     1.535000000    -3.161000000     3.394000000
C     0.467000000    -3.610000000     4.335000000
H     0.830000000    -3.493000000     5.358000000
H     0.158000000    -4.654000000     4.252000000
C    -0.765000000    -2.699000000     4.008000000
C    -0.896000000    -1.531000000     4.705000000
H    -0.158000000    -1.282000000     5.463000000
C    -1.720000000    -3.101000000     3.008000000
C    -2.807000000    -2.315000000     2.820000000
H    -3.538000000    -2.664000000     2.095000000
C    -2.893000000    -1.040000000     3.417000000
O    -3.905000000    -0.226000000     2.957000000
C    -3.596000000     0.926000000     2.085000000
C    -4.509000000     1.056000000     0.905000000
C    -4.465000000     2.153000000     0.059000000
H    -3.924000000     3.063000000     0.307000000
C    -5.329000000    -0.041000000     0.596000000
H    -5.329000000    -0.979000000     1.145000000
O    -3.519000000     2.095000000     2.915000000
H    -2.648000000     0.695000000     1.577000000
C    -1.990000000    -0.689000000     4.448000000
C    -2.173000000     0.655000000     5.311000000
H    -1.492000000     0.629000000     6.164000000
H    -3.181000000     0.852000000     5.682000000
C    -1.643000000     1.793000000     4.442000000
C    -0.332000000     2.188000000     4.654000000
H     0.304000000     1.526000000     5.237000000
C    -2.329000000     2.516000000     3.395000000
C    -1.747000000     3.576000000     2.730000000
H    -2.294000000     4.163000000     1.996000000
C    -0.417000000     3.927000000     2.912000000
O     0.151000000     4.803000000     2.021000000
C     0.859000000     4.134000000     0.931000000
C     0.674000000     4.860000000    -0.371000000
C    -0.494000000     5.494000000    -0.722000000
H    -1.160000000     5.629000000     0.127000000
C     1.552000000     4.564000000    -1.387000000
H     2.465000000     3.983000000    -1.285000000
O     2.237000000     4.074000000     1.302000000
H     0.513000000     3.098000000     0.807000000
C     0.299000000     3.132000000     3.881000000
C     1.810000000     3.416000000     4.109000000
H     2.061000000     3.239000000     5.156000000
H     2.033000000     4.469000000     3.924000000
C     2.621000000     2.559000000     3.178000000
C     2.822000000     2.919000000     1.831000000
C     3.559000000     2.130000000     1.042000000
H     3.664000000     2.360000000    -0.015000000
C     4.191000000     0.961000000     1.524000000
O     4.889000000     0.212000000     0.568000000
C     4.222000000    -0.934000000    -0.057000000
H     3.157000000    -0.666000000     0.000000000
C     4.522000000    -1.086000000    -1.537000000
C     4.416000000    -2.305000000    -2.200000000
H     4.221000000    -3.192000000    -1.603000000
C     4.720000000     0.081000000    -2.230000000
H     4.970000000     0.995000000    -1.696000000
C     4.783000000     0.048000000    -3.644000000
O     5.201000000     1.142000000    -4.395000000
C     4.832000000    -1.178000000    -4.269000000
H     5.074000000    -1.306000000    -5.321000000
C     4.542000000    -2.374000000    -3.602000000
O     4.548000000    -3.541000000    -4.338000000
C     3.885000000    -4.644000000    -3.848000000
C     2.507000000    -4.637000000    -3.763000000
H     1.930000000    -3.777000000    -4.095000000
C     4.597000000    -5.816000000    -3.486000000
H     5.683000000    -5.789000000    -3.529000000
C     3.910000000    -6.972000000    -3.055000000
H     4.445000000    -7.882000000    -2.792000000
C     2.525000000    -7.029000000    -3.118000000
H     1.923000000    -7.858000000    -2.754000000
C     1.812000000    -5.821000000    -3.380000000
O     0.438000000    -5.892000000    -3.342000000
C    -0.412000000    -5.398000000    -2.396000000
C    -1.726000000    -5.080000000    -2.840000000
H    -1.836000000    -5.218000000    -3.913000000
C    -2.696000000    -4.571000000    -2.020000000
O    -3.808000000    -4.128000000    -2.696000000
C    -4.986000000    -3.875000000    -2.008000000
C    -5.319000000    -2.523000000    -1.728000000
H    -4.626000000    -1.758000000    -2.068000000
C    -5.890000000    -4.913000000    -1.677000000
H    -5.538000000    -5.889000000    -2.002000000
C    -7.170000000    -4.606000000    -1.198000000
H    -7.876000000    -5.382000000    -0.913000000
C    -7.479000000    -3.318000000    -0.849000000
H    -8.369000000    -3.115000000    -0.259000000
C    -6.543000000    -2.256000000    -1.096000000
O    -6.933000000    -0.952000000    -0.820000000
C    -6.097000000     0.019000000    -0.525000000
C    -6.024000000     1.059000000    -1.440000000
H    -6.699000000     0.986000000    -2.289000000
C    -5.157000000     2.093000000    -1.161000000
O    -5.059000000     3.077000000    -2.200000000
C    -4.739000000     4.357000000    -1.896000000
C    -3.555000000     4.957000000    -2.324000000
H    -2.853000000     4.376000000    -2.917000000
C    -5.607000000     5.111000000    -1.053000000
H    -6.525000000     4.657000000    -0.691000000
C    -5.273000000     6.454000000    -0.753000000
H    -6.096000000     7.058000000    -0.379000000
C    -4.050000000     7.021000000    -1.138000000
H    -3.848000000     8.068000000    -0.924000000
C    -3.157000000     6.219000000    -1.905000000
O    -1.914000000     6.700000000    -2.238000000
C    -0.744000000     6.025000000    -1.981000000
C     0.262000000     5.910000000    -2.928000000
H     0.192000000     6.340000000    -3.924000000
C     1.357000000     5.114000000    -2.658000000
O     2.282000000     4.845000000    -3.683000000
C     3.549000000     4.268000000    -3.543000000
C     4.607000000     4.886000000    -2.765000000
H     4.457000000     5.868000000    -2.324000000
C     5.839000000     4.271000000    -2.670000000
H     6.661000000     4.754000000    -2.149000000
C     6.028000000     2.961000000    -3.137000000
H     6.979000000     2.464000000    -2.965000000
C     5.028000000     2.411000000    -3.928000000
C     3.815000000     3.012000000    -4.175000000
H     2.997000000     2.457000000    -4.628000000
C    -1.625000000     0.185000000    -2.035000000
H    -2.343000000     0.899000000    -2.431000000
C    -1.067000000     0.338000000    -0.812000000
H    -1.209000000     1.222000000    -0.196000000
C    -0.171000000    -0.544000000    -0.290000000
C     0.556000000    -0.168000000     1.019000000
H    -0.066000000    -0.257000000     1.912000000
H     1.493000000    -0.725000000     1.085000000
H     0.683000000     0.916000000     0.997000000
C     0.305000000    -1.604000000    -1.097000000
H     0.949000000    -2.354000000    -0.645000000
C    -0.300000000    -1.841000000    -2.350000000
H    -0.062000000    -2.744000000    -2.905000000
C    -1.202000000    -0.848000000    -2.837000000
C    -1.807000000    -1.085000000    -4.186000000
O    -1.108000000    -1.534000000    -5.055000000
O    -2.934000000    -0.723000000    -4.395000000
O     0.665000000    -0.091000000    -8.465000000
H     0.346000000     0.665000000    -8.957000000
H    -0.101000000    -0.403000000    -7.983000000
O    -6.198000000    -3.129000000    -6.327000000
H    -6.421000000    -3.748000000    -5.632000000
H    -6.437000000    -3.581000000    -7.136000000
O    -5.688000000    -0.875000000    -4.926000000
H    -5.782000000    -1.534000000    -5.613000000
H    -4.820000000    -1.037000000    -4.556000000
O    -0.294000000    -5.159000000    -6.164000000
H    -0.415000000    -5.402000000    -5.246000000
H    -1.064000000    -4.632000000    -6.376000000
O    -8.662000000    -0.097000000    -5.299000000
H    -7.780000000    -0.380000000    -5.058000000
H    -8.599000000     0.856000000    -5.361000000
O    -2.528000000    -1.826000000    -9.725000000
H    -2.100000000    -1.039000000   -10.061000000
H    -2.641000000    -1.657000000    -8.789000000
O    -0.029000000     2.786000000    -4.998000000
H     0.329000000     2.853000000    -4.112000000
H     0.588000000     2.224000000    -5.464000000
O    -3.186000000    -4.677000000    -8.811000000
H    -3.385000000    -3.897000000    -9.328000000
H    -2.858000000    -4.336000000    -7.979000000
O     1.031000000    -2.755000000    -6.608000000
H     0.828000000    -3.665000000    -6.394000000
H     0.328000000    -2.250000000    -6.198000000
O     0.403000000     5.095000000    -6.432000000
H    -0.420000000     5.583000000    -6.458000000
H     0.181000000     4.272000000    -5.996000000
O     1.416000000     0.027000000    -5.225000000
H     1.928000000    -0.381000000    -5.923000000
H     0.676000000    -0.565000000    -5.094000000
O    -1.796000000     1.651000000    -8.802000000
H    -2.348000000     1.000000000    -8.368000000
H    -2.105000000     2.491000000    -8.463000000
O     1.196000000     1.360000000    -2.719000000
H     0.585000000     0.904000000    -2.140000000
H     1.583000000     0.668000000    -3.254000000
O    -5.032000000     1.676000000    -6.027000000
H    -5.348000000     0.832000000    -5.703000000
H    -4.209000000     1.818000000    -5.561000000
O    -2.622000000     2.209000000    -5.018000000
H    -1.756000000     2.617000000    -5.018000000
H    -2.449000000     1.282000000    -5.182000000
O    -3.064000000    -0.449000000    -7.428000000
H    -2.836000000    -0.767000000    -6.555000000
H    -3.794000000     0.153000000    -7.280000000
O     1.834000000    -3.055000000    -9.265000000
H     1.657000000    -2.808000000    -8.358000000
H     1.526000000    -2.309000000    -9.781000000
O    -4.561000000     4.852000000    -5.332000000
H    -4.537000000     4.171000000    -4.659000000
H    -3.777000000     5.377000000    -5.168000000
O    -2.473000000    -3.499000000    -6.386000000
H    -1.983000000    -2.869000000    -5.858000000
H    -3.339000000    -3.529000000    -5.981000000
