218
-1475.07490
C    -4.115000000    -3.755000000    -0.383000000
H    -4.602000000    -2.930000000     0.133000000
C    -2.977000000    -4.172000000     0.205000000
C    -2.253000000    -5.186000000    -0.413000000
H    -1.298000000    -5.523000000    -0.020000000
C    -2.426000000    -3.404000000     1.407000000
O    -3.506000000    -2.927000000     2.306000000
H    -1.882000000    -2.583000000     0.916000000
O    -1.514000000    -4.372000000     2.084000000
C    -0.365000000    -3.791000000     2.557000000
C     0.726000000    -3.918000000     1.779000000
H     0.731000000    -4.607000000     0.938000000
C     1.939000000    -3.329000000     2.175000000
O     3.037000000    -3.467000000     1.330000000
C     2.056000000    -2.661000000     3.400000000
C     3.317000000    -1.982000000     3.809000000
H     3.222000000    -1.879000000     4.892000000
C     3.617000000    -0.553000000     3.209000000
C     3.210000000     0.576000000     3.962000000
H     2.707000000     0.355000000     4.900000000
H     4.193000000    -2.579000000     3.547000000
C     0.904000000    -2.582000000     4.203000000
H     0.974000000    -1.904000000     5.050000000
C    -0.291000000    -3.054000000     3.782000000
C    -1.656000000    -2.841000000     4.589000000
H    -1.481000000    -2.623000000     5.645000000
H    -2.413000000    -3.614000000     4.449000000
C    -2.324000000    -1.567000000     3.965000000
C    -2.029000000    -0.299000000     4.441000000
H    -1.259000000    -0.210000000     5.205000000
C    -3.228000000    -1.746000000     2.870000000
C    -3.852000000    -0.592000000     2.367000000
H    -4.573000000    -0.641000000     1.556000000
C    -3.621000000     0.655000000     2.910000000
O    -4.175000000     1.702000000     2.199000000
C    -3.211000000     2.413000000     1.380000000
C    -3.673000000     2.600000000    -0.096000000
C    -3.423000000     3.808000000    -0.757000000
H    -2.972000000     4.647000000    -0.231000000
C    -4.309000000     1.541000000    -0.777000000
H    -4.591000000     0.603000000    -0.306000000
O    -2.826000000     3.555000000     2.044000000
H    -2.392000000     1.684000000     1.291000000
C    -2.711000000     0.823000000     3.967000000
C    -2.363000000     2.173000000     4.562000000
H    -2.160000000     2.116000000     5.633000000
H    -3.183000000     2.888000000     4.480000000
C    -1.257000000     2.811000000     3.769000000
C     0.035000000     2.686000000     4.224000000
H     0.196000000     2.165000000     5.165000000
C    -1.522000000     3.537000000     2.557000000
C    -0.465000000     4.091000000     1.855000000
H    -0.698000000     4.709000000     0.992000000
C     0.817000000     3.922000000     2.333000000
O     1.813000000     4.467000000     1.590000000
C     2.565000000     3.489000000     0.766000000
C     2.846000000     4.023000000    -0.669000000
C     1.982000000     5.021000000    -1.169000000
H     1.146000000     5.388000000    -0.578000000
C     3.762000000     3.496000000    -1.565000000
H     4.455000000     2.699000000    -1.304000000
O     3.744000000     3.225000000     1.520000000
H     1.912000000     2.603000000     0.748000000
C     1.115000000     3.152000000     3.486000000
C     2.515000000     2.990000000     3.992000000
H     2.431000000     2.768000000     5.059000000
H     3.030000000     3.946000000     3.880000000
C     3.249000000     1.852000000     3.370000000
C     3.915000000     2.013000000     2.144000000
C     4.368000000     0.873000000     1.397000000
H     4.815000000     0.917000000     0.407000000
C     4.085000000    -0.404000000     1.883000000
O     4.354000000    -1.544000000     1.084000000
C     3.347000000    -2.343000000     0.455000000
H     2.435000000    -1.731000000     0.377000000
C     3.678000000    -2.733000000    -0.992000000
C     3.050000000    -3.885000000    -1.449000000
H     2.551000000    -4.524000000    -0.724000000
C     4.275000000    -1.807000000    -1.846000000
H     4.789000000    -0.945000000    -1.429000000
C     4.275000000    -2.051000000    -3.200000000
O     4.785000000    -1.126000000    -4.108000000
C     3.698000000    -3.250000000    -3.668000000
H     3.708000000    -3.485000000    -4.729000000
C     3.120000000    -4.157000000    -2.804000000
O     2.543000000    -5.308000000    -3.317000000
C     1.668000000    -6.092000000    -2.599000000
C     0.313000000    -6.158000000    -2.865000000
H    -0.150000000    -5.542000000    -3.633000000
C     2.179000000    -6.915000000    -1.578000000
H     3.261000000    -6.956000000    -1.492000000
C     1.403000000    -7.629000000    -0.755000000
H     1.919000000    -8.131000000     0.059000000
C     0.019000000    -7.675000000    -1.045000000
H    -0.741000000    -8.225000000    -0.495000000
C    -0.520000000    -6.880000000    -2.047000000
O    -1.871000000    -6.821000000    -2.242000000
C    -2.623000000    -5.875000000    -1.578000000
C    -3.817000000    -5.372000000    -2.154000000
H    -4.276000000    -5.797000000    -3.043000000
C    -4.572000000    -4.334000000    -1.559000000
O    -5.839000000    -3.905000000    -2.056000000
C    -6.331000000    -2.626000000    -1.899000000
C    -5.729000000    -1.614000000    -2.562000000
H    -4.889000000    -1.828000000    -3.218000000
C    -7.351000000    -2.316000000    -0.980000000
H    -7.809000000    -3.204000000    -0.553000000
C    -7.628000000    -1.039000000    -0.742000000
H    -8.402000000    -0.802000000    -0.016000000
C    -6.938000000     0.003000000    -1.331000000
H    -7.087000000     1.069000000    -1.181000000
C    -6.010000000    -0.280000000    -2.291000000
O    -5.218000000     0.656000000    -2.819000000
C    -4.620000000     1.703000000    -2.114000000
C    -4.299000000     2.859000000    -2.813000000
H    -4.571000000     2.832000000    -3.866000000
C    -3.609000000     3.888000000    -2.155000000
O    -3.322000000     5.122000000    -2.822000000
C    -2.317000000     6.002000000    -2.508000000
C    -1.028000000     5.792000000    -2.892000000
H    -0.706000000     4.901000000    -3.424000000
C    -2.668000000     7.246000000    -1.956000000
H    -3.735000000     7.404000000    -1.816000000
C    -1.705000000     8.222000000    -1.590000000
H    -2.014000000     9.179000000    -1.178000000
C    -0.373000000     7.964000000    -1.943000000
H     0.419000000     8.659000000    -1.675000000
C    -0.031000000     6.756000000    -2.562000000
O     1.287000000     6.531000000    -2.954000000
C     2.099000000     5.506000000    -2.463000000
C     3.030000000     4.988000000    -3.378000000
H     3.171000000     5.480000000    -4.337000000
C     3.907000000     4.006000000    -2.873000000
O     4.933000000     3.537000000    -3.698000000
C     5.570000000     2.349000000    -3.570000000
C     6.935000000     2.311000000    -3.323000000
H     7.434000000     3.252000000    -3.105000000
C     7.630000000     1.098000000    -3.270000000
H     8.705000000     1.033000000    -3.122000000
C     6.928000000    -0.060000000    -3.474000000
H     7.409000000    -1.027000000    -3.605000000
C     5.548000000     0.015000000    -3.718000000
C     4.842000000     1.209000000    -3.777000000
H     3.774000000     1.165000000    -3.974000000
C    -0.797000000     1.260000000    -2.105000000
H    -0.918000000     2.213000000    -2.614000000
C    -0.622000000     1.230000000    -0.710000000
H    -0.554000000     2.205000000    -0.234000000
C    -0.293000000     0.022000000    -0.074000000
C     0.066000000     0.005000000     1.312000000
H    -0.589000000     0.690000000     1.855000000
H    -0.129000000    -1.001000000     1.691000000
H     1.138000000     0.176000000     1.434000000
C    -0.281000000    -1.150000000    -0.825000000
H    -0.035000000    -2.093000000    -0.343000000
C    -0.593000000    -1.097000000    -2.155000000
H    -0.702000000    -2.022000000    -2.716000000
C    -0.770000000     0.114000000    -2.862000000
C    -1.302000000     0.092000000    -4.290000000
O    -1.564000000    -0.985000000    -4.843000000
O    -1.601000000     1.128000000    -4.913000000
O     1.047000000    -2.502000000    -9.858000000
H     1.099000000    -2.297000000   -10.791000000
H     1.162000000    -1.659000000    -9.420000000
O     0.518000000    -0.211000000    -8.080000000
H     0.615000000     0.393000000    -8.816000000
H     0.638000000     0.336000000    -7.304000000
O    -2.435000000    -5.376000000    -6.203000000
H    -2.875000000    -5.025000000    -6.977000000
H    -2.568000000    -4.709000000    -5.529000000
O    -4.485000000    -1.868000000    -8.325000000
H    -4.735000000    -2.125000000    -7.437000000
H    -3.629000000    -1.452000000    -8.221000000
O     1.322000000    -5.029000000    -6.645000000
H     1.050000000    -4.120000000    -6.512000000
H     2.261000000    -4.974000000    -6.824000000
O    -1.646000000     6.261000000    -5.808000000
H    -2.056000000     5.439000000    -5.539000000
H    -1.990000000     6.912000000    -5.197000000
O     0.608000000     1.770000000    -6.206000000
H     1.213000000     2.420000000    -5.848000000
H    -0.223000000     1.949000000    -5.765000000
O    -4.612000000     0.183000000   -10.027000000
H    -4.629000000    -0.688000000    -9.630000000
H    -4.438000000     0.775000000    -9.295000000
O    -5.328000000    -2.801000000    -5.796000000
H    -4.550000000    -3.149000000    -5.360000000
H    -6.061000000    -3.241000000    -5.364000000
O    -4.088000000     1.724000000    -6.428000000
H    -4.681000000     1.009000000    -6.661000000
H    -3.452000000     1.323000000    -5.835000000
O     3.734000000     0.724000000    -6.796000000
H     2.859000000     0.678000000    -6.410000000
H     3.874000000     1.656000000    -6.962000000
O    -2.144000000    -0.679000000    -7.374000000
H    -1.249000000    -0.446000000    -7.622000000
H    -2.084000000    -0.903000000    -6.446000000
O    -2.954000000    -3.225000000    -4.589000000
H    -2.719000000    -3.407000000    -3.679000000
H    -2.523000000    -2.394000000    -4.786000000
O    -7.661000000    -1.076000000    -5.220000000
H    -8.231000000    -1.686000000    -4.752000000
H    -7.249000000    -0.555000000    -4.531000000
O    -3.499000000     2.607000000    -8.830000000
H    -2.591000000     2.349000000    -8.990000000
H    -3.673000000     2.328000000    -7.931000000
O    -5.983000000     3.963000000    -7.319000000
H    -5.580000000     3.100000000    -7.219000000
H    -6.036000000     4.094000000    -8.266000000
O    -6.297000000     0.395000000    -7.571000000
H    -6.613000000    -0.312000000    -7.009000000
H    -6.583000000     0.147000000    -8.451000000
O     0.448000000    -2.461000000    -6.108000000
H    -0.224000000    -2.224000000    -5.468000000
H     0.414000000    -1.762000000    -6.761000000
O    -2.352000000     3.504000000    -5.509000000
H    -3.114000000     3.231000000    -6.020000000
H    -1.981000000     2.686000000    -5.178000000
