218
-1481.55863
C    -4.487000000    -1.507000000    -2.522000000
H    -4.123000000    -1.034000000    -3.430000000
C    -4.643000000    -0.845000000    -1.326000000
C    -5.090000000    -1.530000000    -0.169000000
H    -5.241000000    -1.044000000     0.791000000
C    -4.183000000     0.589000000    -1.132000000
O    -4.213000000     1.316000000    -2.313000000
H    -3.157000000     0.510000000    -0.744000000
O    -4.834000000     1.439000000    -0.010000000
C    -4.096000000     2.220000000     0.740000000
C    -3.767000000     1.716000000     2.020000000
H    -4.352000000     0.849000000     2.319000000
C    -2.906000000     2.382000000     2.861000000
O    -2.563000000     1.695000000     4.040000000
C    -2.424000000     3.639000000     2.542000000
C    -1.404000000     4.351000000     3.481000000
H    -1.356000000     5.426000000     3.296000000
C    -0.017000000     3.755000000     3.220000000
C     0.813000000     4.400000000     2.249000000
H     0.264000000     5.236000000     1.823000000
H    -1.752000000     4.270000000     4.512000000
C    -2.694000000     4.089000000     1.264000000
H    -2.220000000     5.027000000     0.989000000
C    -3.561000000     3.425000000     0.370000000
C    -3.821000000     4.042000000    -1.017000000
H    -3.778000000     5.132000000    -0.970000000
H    -4.833000000     3.746000000    -1.304000000
C    -2.926000000     3.379000000    -2.138000000
C    -1.727000000     3.974000000    -2.481000000
H    -1.524000000     4.975000000    -2.109000000
C    -3.144000000     2.070000000    -2.684000000
C    -2.194000000     1.399000000    -3.439000000
H    -2.310000000     0.344000000    -3.674000000
C    -1.028000000     2.020000000    -3.789000000
O    -0.094000000     1.395000000    -4.565000000
C     0.913000000     0.689000000    -3.736000000
C     1.202000000    -0.673000000    -4.377000000
C     2.503000000    -1.221000000    -4.347000000
H     3.309000000    -0.576000000    -4.007000000
C     0.139000000    -1.412000000    -4.952000000
H    -0.897000000    -1.085000000    -4.935000000
O     2.058000000     1.520000000    -3.826000000
H     0.495000000     0.596000000    -2.723000000
C    -0.748000000     3.365000000    -3.284000000
C     0.521000000     4.067000000    -3.551000000
H     0.364000000     5.142000000    -3.438000000
H     0.949000000     3.960000000    -4.549000000
C     1.563000000     3.572000000    -2.559000000
C     1.767000000     4.364000000    -1.419000000
H     1.214000000     5.259000000    -1.149000000
C     2.318000000     2.439000000    -2.832000000
C     3.408000000     2.185000000    -2.016000000
H     4.035000000     1.332000000    -2.260000000
C     3.630000000     2.940000000    -0.829000000
O     4.431000000     2.450000000     0.148000000
C     3.832000000     1.577000000     1.140000000
C     4.605000000     0.232000000     1.281000000
C     4.958000000    -0.537000000     0.191000000
H     4.589000000    -0.112000000    -0.739000000
C     4.887000000    -0.252000000     2.591000000
H     4.723000000     0.333000000     3.492000000
O     3.740000000     2.310000000     2.354000000
H     2.838000000     1.362000000     0.723000000
C     2.723000000     3.988000000    -0.514000000
C     2.854000000     4.740000000     0.789000000
H     2.292000000     5.661000000     0.617000000
H     3.888000000     4.948000000     1.071000000
C     2.065000000     4.002000000     1.868000000
C     2.519000000     2.836000000     2.570000000
C     1.793000000     2.133000000     3.555000000
H     2.235000000     1.272000000     4.048000000
C     0.470000000     2.606000000     3.853000000
O    -0.371000000     1.943000000     4.709000000
C    -1.249000000     1.036000000     4.043000000
H    -0.955000000     0.963000000     2.986000000
C    -1.194000000    -0.347000000     4.643000000
C    -2.283000000    -1.205000000     4.480000000
H    -3.172000000    -0.828000000     3.981000000
C    -0.026000000    -0.817000000     5.207000000
H     0.833000000    -0.173000000     5.379000000
C     0.090000000    -2.188000000     5.477000000
O     1.228000000    -2.766000000     5.992000000
C    -0.945000000    -3.062000000     5.147000000
H    -0.810000000    -4.093000000     5.465000000
C    -2.221000000    -2.519000000     4.882000000
O    -3.169000000    -3.449000000     4.779000000
C    -4.398000000    -3.314000000     4.139000000
C    -4.483000000    -3.618000000     2.759000000
H    -3.628000000    -3.905000000     2.151000000
C    -5.461000000    -2.768000000     4.839000000
H    -5.458000000    -2.762000000     5.926000000
C    -6.668000000    -2.445000000     4.191000000
H    -7.456000000    -1.882000000     4.684000000
C    -6.780000000    -2.751000000     2.795000000
H    -7.696000000    -2.560000000     2.243000000
C    -5.711000000    -3.344000000     2.136000000
O    -5.804000000    -3.587000000     0.786000000
C    -5.303000000    -2.870000000    -0.268000000
C    -5.197000000    -3.469000000    -1.519000000
H    -5.379000000    -4.539000000    -1.579000000
C    -4.728000000    -2.838000000    -2.626000000
O    -4.719000000    -3.515000000    -3.858000000
C    -3.875000000    -3.274000000    -4.924000000
C    -2.561000000    -3.592000000    -4.859000000
H    -2.109000000    -3.855000000    -3.906000000
C    -4.559000000    -2.906000000    -6.052000000
H    -5.641000000    -2.811000000    -6.011000000
C    -3.815000000    -2.768000000    -7.218000000
H    -4.242000000    -2.432000000    -8.159000000
C    -2.452000000    -3.141000000    -7.213000000
H    -1.909000000    -3.012000000    -8.146000000
C    -1.847000000    -3.480000000    -6.024000000
O    -0.475000000    -3.605000000    -5.972000000
C     0.475000000    -2.692000000    -5.479000000
C     1.788000000    -3.141000000    -5.540000000
H     1.949000000    -4.061000000    -6.097000000
C     2.815000000    -2.408000000    -4.893000000
O     4.151000000    -2.783000000    -4.950000000
C     5.133000000    -2.234000000    -4.109000000
C     5.185000000    -2.520000000    -2.755000000
H     4.431000000    -3.169000000    -2.317000000
C     6.043000000    -1.328000000    -4.651000000
H     5.833000000    -1.032000000    -5.676000000
C     7.098000000    -0.816000000    -3.869000000
H     7.681000000     0.020000000    -4.246000000
C     7.156000000    -1.175000000    -2.531000000
H     7.814000000    -0.655000000    -1.840000000
C     6.244000000    -1.998000000    -2.002000000
O     6.401000000    -2.399000000    -0.712000000
C     5.728000000    -1.724000000     0.306000000
C     5.926000000    -2.167000000     1.610000000
H     6.531000000    -3.061000000     1.742000000
C     5.483000000    -1.511000000     2.780000000
O     5.567000000    -2.184000000     3.999000000
C     4.672000000    -1.904000000     4.984000000
C     5.059000000    -0.956000000     5.946000000
H     5.958000000    -0.359000000     5.817000000
C     4.125000000    -0.554000000     6.907000000
H     4.359000000     0.242000000     7.611000000
C     2.860000000    -1.179000000     6.925000000
H     2.115000000    -0.769000000     7.602000000
C     2.525000000    -2.164000000     5.942000000
C     3.441000000    -2.484000000     4.953000000
H     3.219000000    -3.208000000     4.174000000
C    -1.349000000    -2.799000000    -0.439000000
H    -2.153000000    -3.500000000    -0.228000000
C    -1.344000000    -1.475000000     0.058000000
H    -2.230000000    -1.202000000     0.626000000
C    -0.230000000    -0.669000000    -0.187000000
C    -0.246000000     0.766000000     0.340000000
H    -1.210000000     1.171000000     0.654000000
H     0.478000000     0.867000000     1.151000000
H     0.174000000     1.367000000    -0.469000000
C     0.919000000    -1.137000000    -0.826000000
H     1.763000000    -0.482000000    -1.028000000
C     0.889000000    -2.432000000    -1.279000000
H     1.817000000    -2.741000000    -1.753000000
C    -0.175000000    -3.303000000    -1.073000000
C    -0.080000000    -4.691000000    -1.654000000
O     0.828000000    -5.064000000    -2.270000000
O    -0.986000000    -5.431000000    -1.343000000
O    -2.506000000   -10.530000000    -0.102000000
H    -2.063000000    -9.747000000    -0.429000000
H    -3.225000000   -10.673000000    -0.717000000
O    -3.471000000    -6.539000000    -1.768000000
H    -2.593000000    -6.647000000    -1.404000000
H    -3.328000000    -6.419000000    -2.707000000
O    -0.986000000    -6.464000000    -4.256000000
H    -0.163000000    -6.439000000    -4.744000000
H    -0.743000000    -6.210000000    -3.365000000
O    -0.779000000    -6.205000000     3.233000000
H    -1.515000000    -6.103000000     2.629000000
H    -1.167000000    -6.586000000     4.021000000
O     2.092000000    -6.291000000    -4.537000000
H     2.845000000    -6.725000000    -4.135000000
H     1.715000000    -5.765000000    -3.832000000
O    -2.883000000    -6.743000000    -6.228000000
H    -3.316000000    -7.415000000    -5.700000000
H    -2.126000000    -6.478000000    -5.705000000
O    -5.802000000    -7.612000000    -1.436000000
H    -6.209000000    -6.822000000    -1.080000000
H    -4.907000000    -7.346000000    -1.649000000
O    -2.548000000    -5.771000000     0.831000000
H    -3.238000000    -5.950000000     0.193000000
H    -1.769000000    -5.601000000     0.301000000
O     4.090000000    -6.976000000    -3.024000000
H     4.843000000    -6.644000000    -2.536000000
H     3.868000000    -7.800000000    -2.592000000
O     3.695000000    -8.574000000    -0.886000000
H     3.661000000    -9.245000000    -0.205000000
H     3.150000000    -7.863000000    -0.549000000
O    -0.025000000    -9.154000000    -3.541000000
H     0.025000000    -9.395000000    -2.616000000
H    -0.381000000    -8.266000000    -3.538000000
O     0.592000000    -3.822000000     1.788000000
H    -0.002000000    -3.497000000     1.111000000
H     0.114000000    -4.540000000     2.202000000
O     2.393000000    -6.316000000    -0.010000000
H     3.211000000    -5.877000000    -0.243000000
H     1.742000000    -5.940000000    -0.603000000
O     3.122000000    -3.235000000     1.109000000
H     2.307000000    -3.338000000     1.599000000
H     3.192000000    -2.293000000     0.954000000
O     1.061000000    -9.592000000     1.005000000
H     1.596000000    -9.032000000     1.566000000
H     1.201000000   -10.476000000     1.346000000
O     1.825000000    -6.830000000     2.525000000
H     1.017000000    -6.546000000     2.952000000
H     1.828000000    -6.369000000     1.686000000
O     1.005000000    -8.417000000    -6.028000000
H     1.611000000    -7.749000000    -5.706000000
H     0.607000000    -8.780000000    -5.236000000
O    -0.654000000    -8.268000000    -0.830000000
H    -0.391000000    -7.350000000    -0.882000000
H    -0.021000000    -8.666000000    -0.232000000
O     4.581000000    -4.809000000    -0.422000000
H     4.184000000    -4.409000000     0.351000000
H     5.450000000    -4.413000000    -0.479000000
