218
-1467.41247
C    -3.355000000    -3.294000000    -2.268000000
H    -4.086000000    -2.551000000    -1.963000000
C    -2.436000000    -3.868000000    -1.368000000
C    -1.508000000    -4.833000000    -1.873000000
H    -0.900000000    -5.419000000    -1.188000000
C    -2.338000000    -3.459000000     0.094000000
O    -3.709000000    -3.230000000     0.577000000
H    -1.799000000    -2.510000000     0.232000000
O    -1.708000000    -4.459000000     0.884000000
C    -0.870000000    -4.011000000     1.966000000
C     0.492000000    -4.236000000     1.844000000
H     0.877000000    -4.826000000     1.017000000
C     1.402000000    -3.722000000     2.731000000
O     2.739000000    -3.566000000     2.374000000
C     0.926000000    -2.992000000     3.798000000
C     1.887000000    -2.265000000     4.769000000
H     1.442000000    -2.271000000     5.766000000
C     2.140000000    -0.789000000     4.402000000
C     1.388000000     0.288000000     4.985000000
H     0.575000000     0.167000000     5.697000000
H     2.802000000    -2.844000000     4.912000000
C    -0.434000000    -2.938000000     4.038000000
H    -0.829000000    -2.491000000     4.947000000
C    -1.398000000    -3.371000000     3.085000000
C    -2.894000000    -3.268000000     3.425000000
H    -2.950000000    -3.316000000     4.515000000
H    -3.373000000    -4.182000000     3.068000000
C    -3.592000000    -2.089000000     2.764000000
C    -3.683000000    -0.939000000     3.480000000
H    -3.223000000    -0.978000000     4.464000000
C    -3.926000000    -2.115000000     1.354000000
C    -4.432000000    -1.001000000     0.791000000
H    -4.868000000    -1.039000000    -0.204000000
C    -4.517000000     0.212000000     1.526000000
O    -4.907000000     1.343000000     0.832000000
C    -3.764000000     2.137000000     0.351000000
C    -3.893000000     2.499000000    -1.119000000
C    -3.294000000     3.631000000    -1.591000000
H    -2.801000000     4.366000000    -0.959000000
C    -4.583000000     1.623000000    -1.985000000
H    -4.911000000     0.654000000    -1.619000000
O    -3.665000000     3.277000000     1.222000000
H    -2.837000000     1.555000000     0.460000000
C    -4.094000000     0.314000000     2.894000000
C    -3.976000000     1.633000000     3.640000000
H    -4.128000000     1.448000000     4.706000000
H    -4.823000000     2.280000000     3.404000000
C    -2.683000000     2.390000000     3.231000000
C    -1.613000000     2.253000000     4.058000000
H    -1.809000000     1.755000000     5.005000000
C    -2.624000000     3.202000000     2.122000000
C    -1.383000000     3.840000000     1.827000000
H    -1.220000000     4.442000000     0.936000000
C    -0.307000000     3.732000000     2.701000000
O     0.939000000     4.280000000     2.335000000
C     2.001000000     3.374000000     1.907000000
C     2.747000000     3.974000000     0.675000000
C     1.999000000     4.543000000    -0.337000000
H     0.981000000     4.867000000    -0.135000000
C     4.123000000     3.671000000     0.447000000
H     4.744000000     3.188000000     1.197000000
O     2.909000000     3.025000000     3.025000000
H     1.416000000     2.508000000     1.564000000
C    -0.398000000     2.882000000     3.811000000
C     0.733000000     2.726000000     4.814000000
H     0.233000000     2.581000000     5.773000000
H     1.292000000     3.655000000     4.944000000
C     1.714000000     1.627000000     4.611000000
C     2.710000000     1.876000000     3.654000000
C     3.364000000     0.801000000     3.061000000
H     4.142000000     1.021000000     2.335000000
C     3.056000000    -0.469000000     3.430000000
O     3.805000000    -1.455000000     2.762000000
C     3.087000000    -2.319000000     1.742000000
H     2.186000000    -1.753000000     1.465000000
C     3.874000000    -2.489000000     0.437000000
C     3.271000000    -3.042000000    -0.660000000
H     2.292000000    -3.515000000    -0.661000000
C     5.041000000    -1.769000000     0.259000000
H     5.364000000    -1.113000000     1.063000000
C     5.738000000    -1.714000000    -0.899000000
O     6.857000000    -0.866000000    -1.105000000
C     5.277000000    -2.450000000    -1.991000000
H     5.814000000    -2.613000000    -2.921000000
C     4.033000000    -3.061000000    -1.878000000
O     3.496000000    -3.684000000    -3.026000000
C     2.781000000    -4.828000000    -3.029000000
C     1.462000000    -4.830000000    -3.473000000
H     0.944000000    -3.931000000    -3.796000000
C     3.396000000    -5.997000000    -2.621000000
H     4.381000000    -5.952000000    -2.162000000
C     2.804000000    -7.218000000    -2.654000000
H     3.243000000    -8.168000000    -2.362000000
C     1.415000000    -7.213000000    -3.033000000
H     0.911000000    -8.169000000    -2.924000000
C     0.801000000    -6.025000000    -3.470000000
O    -0.540000000    -6.040000000    -3.777000000
C    -1.439000000    -5.093000000    -3.230000000
C    -2.362000000    -4.485000000    -4.052000000
H    -2.345000000    -4.811000000    -5.089000000
C    -3.339000000    -3.661000000    -3.609000000
O    -4.239000000    -3.156000000    -4.522000000
C    -5.283000000    -2.168000000    -4.233000000
C    -4.963000000    -0.820000000    -4.226000000
H    -3.936000000    -0.485000000    -4.348000000
C    -6.559000000    -2.619000000    -3.889000000
H    -6.631000000    -3.695000000    -3.754000000
C    -7.611000000    -1.686000000    -3.823000000
H    -8.577000000    -2.031000000    -3.464000000
C    -7.318000000    -0.329000000    -4.044000000
H    -8.047000000     0.461000000    -3.878000000
C    -6.029000000     0.070000000    -4.132000000
O    -5.713000000     1.369000000    -4.094000000
C    -4.833000000     2.062000000    -3.267000000
C    -4.243000000     3.190000000    -3.768000000
H    -4.504000000     3.466000000    -4.786000000
C    -3.439000000     3.970000000    -2.946000000
O    -2.773000000     5.096000000    -3.434000000
C    -1.737000000     5.708000000    -2.783000000
C    -0.439000000     5.391000000    -3.177000000
H    -0.234000000     4.651000000    -3.946000000
C    -2.049000000     6.670000000    -1.809000000
H    -3.028000000     6.882000000    -1.386000000
C    -0.971000000     7.312000000    -1.252000000
H    -1.155000000     7.956000000    -0.397000000
C     0.309000000     6.919000000    -1.508000000
H     1.158000000     7.191000000    -0.885000000
C     0.593000000     5.951000000    -2.501000000
O     1.844000000     5.286000000    -2.638000000
C     2.593000000     4.975000000    -1.540000000
C     3.936000000     4.667000000    -1.724000000
H     4.527000000     4.934000000    -2.596000000
C     4.684000000     4.106000000    -0.715000000
O     6.021000000     3.847000000    -1.011000000
C     6.740000000     2.741000000    -0.601000000
C     7.807000000     2.952000000     0.232000000
H     8.106000000     3.951000000     0.540000000
C     8.604000000     1.845000000     0.597000000
H     9.576000000     1.981000000     1.064000000
C     8.261000000     0.555000000     0.217000000
H     8.978000000    -0.247000000     0.373000000
C     7.171000000     0.298000000    -0.567000000
C     6.354000000     1.415000000    -0.917000000
H     5.551000000     1.342000000    -1.647000000
C    -0.304000000     1.272000000    -2.597000000
H    -0.385000000     2.161000000    -3.217000000
C    -0.125000000     1.320000000    -1.202000000
H    -0.128000000     2.282000000    -0.697000000
C     0.066000000     0.150000000    -0.501000000
C     0.298000000     0.167000000     0.993000000
H    -0.012000000    -0.777000000     1.447000000
H     1.384000000     0.152000000     1.102000000
H    -0.124000000     1.084000000     1.410000000
C     0.106000000    -1.083000000    -1.145000000
H     0.171000000    -2.046000000    -0.646000000
C    -0.171000000    -1.112000000    -2.546000000
H    -0.375000000    -2.067000000    -3.022000000
C    -0.344000000     0.062000000    -3.279000000
C    -0.843000000    -0.011000000    -4.694000000
O    -0.537000000    -0.944000000    -5.408000000
O    -1.334000000     0.981000000    -5.186000000
O     3.014000000     1.993000000    -3.093000000
H     2.697000000     2.511000000    -2.354000000
H     3.833000000     2.417000000    -3.348000000
O    -3.104000000     2.204000000    -6.876000000
H    -2.500000000     1.751000000    -6.288000000
H    -3.774000000     1.552000000    -7.081000000
O     0.565000000     4.908000000    -6.538000000
H     0.909000000     4.015000000    -6.523000000
H    -0.385000000     4.798000000    -6.585000000
O    -0.333000000    -0.029000000    -8.002000000
H    -1.178000000     0.150000000    -8.414000000
H    -0.544000000    -0.190000000    -7.082000000
O     1.092000000    -2.053000000    -9.525000000
H     0.923000000    -1.161000000    -9.828000000
H     1.073000000    -1.991000000    -8.570000000
O    -6.170000000     2.502000000    -6.689000000
H    -5.428000000     2.192000000    -6.169000000
H    -6.746000000     2.927000000    -6.054000000
O    -3.033000000    -4.859000000    -8.044000000
H    -2.130000000    -5.164000000    -8.127000000
H    -2.960000000    -3.905000000    -8.001000000
O    -1.985000000    -2.571000000    -7.240000000
H    -1.802000000    -1.965000000    -6.522000000
H    -1.137000000    -2.701000000    -7.665000000
O     1.108000000     2.335000000    -5.147000000
H     1.491000000     2.173000000    -4.285000000
H     0.259000000     1.896000000    -5.119000000
O    -0.239000000    -4.993000000    -7.978000000
H     0.438000000    -4.400000000    -7.652000000
H    -0.218000000    -5.736000000    -7.375000000
O     1.010000000    -2.913000000    -6.569000000
H     1.907000000    -2.879000000    -6.234000000
H     0.566000000    -2.183000000    -6.137000000
O     3.801000000    -0.118000000    -4.899000000
H     3.035000000     0.452000000    -4.830000000
H     4.543000000     0.454000000    -4.704000000
O    -4.075000000    -1.052000000    -8.184000000
H    -3.330000000    -1.577000000    -7.893000000
H    -3.843000000    -0.779000000    -9.072000000
O    -2.155000000     4.556000000    -6.096000000
H    -2.249000000     4.845000000    -5.188000000
H    -2.600000000     3.709000000    -6.125000000
O     1.401000000     2.076000000    -8.159000000
H     0.926000000     1.246000000    -8.161000000
H     1.620000000     2.225000000    -7.239000000
O     3.871000000    -2.793000000    -5.946000000
H     4.450000000    -2.818000000    -6.708000000
H     4.111000000    -1.986000000    -5.490000000
O    -2.944000000     3.306000000    -9.390000000
H    -2.017000000     3.322000000    -9.630000000
H    -2.954000000     2.971000000    -8.494000000
O    -0.494000000     2.901000000   -10.328000000
H     0.268000000     2.417000000   -10.010000000
H    -0.128000000     3.694000000   -10.718000000
O    -6.579000000    -1.305000000    -7.115000000
H    -6.207000000    -1.225000000    -6.236000000
H    -5.818000000    -1.350000000    -7.694000000
