218
-1458.61923
C    -3.644000000    -2.451000000    -1.719000000
H    -4.357000000    -1.999000000    -1.035000000
C    -2.694000000    -3.348000000    -1.212000000
C    -1.856000000    -3.996000000    -2.165000000
H    -1.082000000    -4.661000000    -1.790000000
C    -2.347000000    -3.453000000     0.246000000
O    -3.529000000    -3.349000000     1.116000000
H    -1.670000000    -2.618000000     0.477000000
O    -1.491000000    -4.617000000     0.499000000
C    -0.452000000    -4.274000000     1.329000000
C     0.789000000    -4.343000000     0.708000000
H     0.856000000    -4.561000000    -0.355000000
C     1.931000000    -3.949000000     1.404000000
O     3.165000000    -3.851000000     0.730000000
C     1.863000000    -3.521000000     2.749000000
C     3.103000000    -3.057000000     3.445000000
H     3.088000000    -3.240000000     4.521000000
C     3.290000000    -1.578000000     3.137000000
C     2.753000000    -0.581000000     4.044000000
H     2.087000000    -0.833000000     4.865000000
H     3.979000000    -3.609000000     3.098000000
C     0.642000000    -3.595000000     3.421000000
H     0.572000000    -3.255000000     4.451000000
C    -0.530000000    -4.060000000     2.716000000
C    -1.832000000    -4.038000000     3.419000000
H    -1.853000000    -4.380000000     4.456000000
H    -2.518000000    -4.817000000     3.079000000
C    -2.572000000    -2.692000000     3.253000000
C    -2.344000000    -1.665000000     4.172000000
H    -1.730000000    -1.779000000     5.061000000
C    -3.482000000    -2.514000000     2.191000000
C    -3.965000000    -1.259000000     1.903000000
H    -4.644000000    -1.230000000     1.054000000
C    -3.772000000    -0.226000000     2.876000000
O    -4.298000000     1.023000000     2.684000000
C    -3.453000000     2.032000000     2.083000000
C    -4.179000000     2.653000000     0.859000000
C    -3.636000000     3.821000000     0.306000000
H    -2.687000000     4.159000000     0.715000000
C    -5.378000000     2.091000000     0.423000000
H    -5.764000000     1.180000000     0.873000000
O    -2.967000000     2.999000000     3.101000000
H    -2.604000000     1.471000000     1.666000000
C    -2.937000000    -0.471000000     3.958000000
C    -2.599000000     0.606000000     4.916000000
H    -2.353000000     0.327000000     5.943000000
H    -3.467000000     1.243000000     5.098000000
C    -1.475000000     1.643000000     4.472000000
C    -0.172000000     1.387000000     4.865000000
H     0.128000000     0.589000000     5.540000000
C    -1.737000000     2.647000000     3.553000000
C    -0.698000000     3.491000000     3.134000000
H    -1.050000000     4.302000000     2.501000000
C     0.602000000     3.187000000     3.466000000
O     1.626000000     3.849000000     2.823000000
C     2.308000000     3.143000000     1.744000000
C     2.588000000     3.769000000     0.413000000
C     1.575000000     4.579000000    -0.097000000
H     0.719000000     4.700000000     0.561000000
C     3.750000000     3.614000000    -0.335000000
H     4.578000000     2.975000000    -0.039000000
O     3.514000000     2.497000000     2.295000000
H     1.770000000     2.200000000     1.565000000
C     0.889000000     2.239000000     4.445000000
C     2.302000000     1.801000000     4.746000000
H     2.405000000     1.593000000     5.813000000
H     2.840000000     2.739000000     4.591000000
C     2.872000000     0.813000000     3.792000000
C     3.468000000     1.189000000     2.602000000
C     4.133000000     0.267000000     1.773000000
H     4.570000000     0.601000000     0.835000000
C     3.981000000    -1.098000000     1.994000000
O     4.554000000    -1.965000000     1.078000000
C     3.630000000    -2.584000000     0.187000000
H     2.738000000    -1.966000000     0.001000000
C     4.296000000    -2.757000000    -1.150000000
C     4.042000000    -3.886000000    -1.927000000
H     3.532000000    -4.751000000    -1.509000000
C     4.812000000    -1.558000000    -1.621000000
H     5.048000000    -0.717000000    -0.975000000
C     5.066000000    -1.619000000    -3.018000000
O     5.699000000    -0.553000000    -3.621000000
C     4.885000000    -2.774000000    -3.858000000
H     5.060000000    -2.688000000    -4.928000000
C     4.380000000    -3.955000000    -3.273000000
O     4.057000000    -5.036000000    -4.013000000
C     2.687000000    -5.494000000    -3.996000000
C     1.611000000    -4.611000000    -4.163000000
H     1.727000000    -3.537000000    -4.288000000
C     2.319000000    -6.804000000    -3.485000000
H     3.109000000    -7.458000000    -3.125000000
C     1.018000000    -7.176000000    -3.431000000
H     0.771000000    -8.190000000    -3.127000000
C    -0.039000000    -6.293000000    -3.594000000
H    -1.062000000    -6.634000000    -3.458000000
C     0.251000000    -5.011000000    -3.994000000
O    -0.789000000    -4.144000000    -4.386000000
C    -1.742000000    -3.594000000    -3.506000000
C    -2.773000000    -2.752000000    -3.976000000
H    -2.800000000    -2.583000000    -5.049000000
C    -3.751000000    -2.280000000    -3.102000000
O    -4.598000000    -1.417000000    -3.638000000
C    -5.764000000    -0.912000000    -2.950000000
C    -5.804000000     0.288000000    -2.288000000
H    -4.914000000     0.913000000    -2.290000000
C    -6.830000000    -1.778000000    -2.842000000
H    -6.864000000    -2.791000000    -3.235000000
C    -7.977000000    -1.372000000    -2.240000000
H    -8.886000000    -1.966000000    -2.303000000
C    -8.081000000    -0.058000000    -1.721000000
H    -9.016000000     0.395000000    -1.399000000
C    -6.962000000     0.695000000    -1.669000000
O    -7.103000000     1.992000000    -1.186000000
C    -6.050000000     2.658000000    -0.621000000
C    -5.482000000     3.758000000    -1.310000000
H    -5.858000000     3.971000000    -2.307000000
C    -4.302000000     4.407000000    -0.806000000
O    -3.807000000     5.467000000    -1.445000000
C    -2.668000000     6.081000000    -1.037000000
C    -1.444000000     5.704000000    -1.551000000
H    -1.487000000     4.871000000    -2.248000000
C    -2.776000000     7.257000000    -0.214000000
H    -3.781000000     7.580000000     0.045000000
C    -1.655000000     8.031000000     0.057000000
H    -1.643000000     8.986000000     0.575000000
C    -0.395000000     7.571000000    -0.390000000
H     0.536000000     8.121000000    -0.285000000
C    -0.293000000     6.410000000    -1.188000000
O     0.878000000     6.102000000    -1.842000000
C     1.776000000     5.322000000    -1.255000000
C     2.969000000     5.112000000    -1.951000000
H     3.076000000     5.718000000    -2.847000000
C     3.895000000     4.210000000    -1.545000000
O     5.036000000     4.105000000    -2.231000000
C     5.828000000     2.959000000    -2.522000000
C     7.184000000     3.157000000    -2.590000000
H     7.560000000     4.172000000    -2.489000000
C     8.063000000     2.152000000    -2.814000000
H     9.128000000     2.360000000    -2.875000000
C     7.493000000     0.850000000    -3.050000000
H     8.131000000     0.006000000    -3.295000000
C     6.130000000     0.653000000    -3.053000000
C     5.258000000     1.680000000    -2.765000000
H     4.193000000     1.518000000    -2.909000000
C     1.254000000     1.424000000    -1.609000000
H     2.196000000     1.700000000    -2.075000000
C     1.186000000     0.749000000    -0.410000000
H     2.067000000     0.378000000     0.108000000
C    -0.038000000     0.387000000     0.149000000
C    -0.164000000    -0.502000000     1.403000000
H    -0.284000000    -1.543000000     1.097000000
H     0.673000000    -0.404000000     2.098000000
H    -0.955000000    -0.092000000     2.034000000
C    -1.176000000     0.701000000    -0.524000000
H    -2.155000000     0.421000000    -0.143000000
C    -1.127000000     1.411000000    -1.713000000
H    -2.041000000     1.566000000    -2.281000000
C     0.087000000     1.683000000    -2.324000000
C     0.083000000     2.295000000    -3.706000000
O    -0.925000000     2.653000000    -4.212000000
O     1.125000000     2.196000000    -4.302000000
O    -0.841000000    -1.111000000    -5.553000000
H    -0.294000000    -1.505000000    -4.874000000
H    -0.299000000    -1.135000000    -6.342000000
O     4.277000000     1.812000000    -7.052000000
H     4.608000000     2.532000000    -6.515000000
H     3.331000000     1.955000000    -7.086000000
O    -3.310000000     4.057000000    -4.376000000
H    -2.576000000     3.491000000    -4.138000000
H    -3.149000000     4.872000000    -3.899000000
O     2.177000000     5.937000000    -8.360000000
H     1.381000000     5.866000000    -8.886000000
H     1.864000000     6.137000000    -7.478000000
O    -0.187000000     4.362000000    -6.217000000
H    -0.551000000     3.592000000    -5.781000000
H     0.406000000     4.006000000    -6.878000000
O    -0.454000000     8.880000000    -5.780000000
H    -0.870000000     8.034000000    -5.618000000
H    -0.928000000     9.241000000    -6.529000000
O    -6.022000000     3.543000000    -5.057000000
H    -5.127000000     3.736000000    -4.779000000
H    -6.243000000     4.251000000    -5.662000000
O     4.965000000     4.033000000    -5.438000000
H     4.115000000     4.276000000    -5.804000000
H     4.928000000     4.329000000    -4.529000000
O     0.568000000    -0.453000000    -7.985000000
H     0.770000000    -0.058000000    -8.834000000
H     1.271000000    -1.086000000    -7.842000000
O    -3.216000000     6.523000000    -7.308000000
H    -3.152000000     7.140000000    -8.037000000
H    -2.442000000     5.966000000    -7.396000000
O     1.961000000    -0.299000000    -4.167000000
H     1.753000000     0.609000000    -4.387000000
H     1.168000000    -0.630000000    -3.745000000
O    -2.621000000     2.093000000    -8.701000000
H    -2.375000000     2.763000000    -8.063000000
H    -2.405000000     1.265000000    -8.274000000
O     1.571000000     2.000000000    -6.882000000
H     1.105000000     1.265000000    -7.282000000
H     1.420000000     1.895000000    -5.942000000
O     1.936000000     1.694000000    -9.866000000
H     2.588000000     1.457000000   -10.526000000
H     2.332000000     2.423000000    -9.389000000
O    -5.736000000     1.646000000    -7.658000000
H    -5.704000000     2.527000000    -8.031000000
H    -5.027000000     1.631000000    -7.016000000
O    -1.786000000     6.408000000    -4.971000000
H    -1.362000000     5.558000000    -5.087000000
H    -2.565000000     6.365000000    -5.525000000
O    -2.453000000     0.889000000    -5.461000000
H    -1.813000000     1.488000000    -5.077000000
H    -1.941000000     0.118000000    -5.707000000
O     2.291000000     4.444000000    -4.988000000
H     2.197000000     3.501000000    -4.849000000
H     1.406000000     4.744000000    -5.197000000
O     2.769000000    -1.613000000    -6.468000000
H     3.663000000    -1.397000000    -6.734000000
H     2.647000000    -1.148000000    -5.641000000
