218
-1456.89210
C    -4.496000000    -2.126000000    -1.897000000
H    -4.358000000    -1.694000000    -2.884000000
C    -4.404000000    -1.339000000    -0.799000000
C    -4.482000000    -1.982000000     0.429000000
H    -4.328000000    -1.390000000     1.328000000
C    -4.084000000     0.209000000    -0.776000000
O    -4.251000000     0.672000000    -2.156000000
H    -3.016000000     0.278000000    -0.519000000
O    -5.002000000     0.904000000     0.098000000
C    -4.359000000     1.838000000     0.935000000
C    -3.989000000     1.517000000     2.222000000
H    -4.220000000     0.521000000     2.591000000
C    -3.091000000     2.354000000     2.927000000
O    -2.531000000     1.815000000     4.066000000
C    -2.572000000     3.508000000     2.332000000
C    -1.553000000     4.485000000     3.026000000
H    -1.615000000     5.506000000     2.642000000
C    -0.138000000     3.999000000     2.767000000
C     0.655000000     4.638000000     1.788000000
H     0.244000000     5.507000000     1.281000000
H    -1.863000000     4.370000000     4.066000000
C    -3.022000000     3.870000000     1.075000000
H    -2.599000000     4.786000000     0.673000000
C    -3.940000000     3.070000000     0.408000000
C    -4.231000000     3.576000000    -1.010000000
H    -4.206000000     4.667000000    -1.050000000
H    -5.271000000     3.434000000    -1.310000000
C    -3.218000000     2.897000000    -2.073000000
C    -2.127000000     3.686000000    -2.558000000
H    -2.049000000     4.741000000    -2.306000000
C    -3.316000000     1.582000000    -2.546000000
C    -2.385000000     1.103000000    -3.475000000
H    -2.404000000     0.077000000    -3.832000000
C    -1.302000000     1.876000000    -3.838000000
O    -0.290000000     1.271000000    -4.599000000
C     0.946000000     0.843000000    -3.960000000
C     1.266000000    -0.573000000    -4.486000000
C     2.606000000    -0.886000000    -4.656000000
H     3.324000000    -0.070000000    -4.632000000
C     0.317000000    -1.560000000    -4.588000000
H    -0.709000000    -1.299000000    -4.339000000
O     1.911000000     1.793000000    -4.366000000
H     0.805000000     0.868000000    -2.869000000
C    -1.198000000     3.177000000    -3.405000000
C    -0.029000000     3.945000000    -3.878000000
H    -0.219000000     5.019000000    -3.817000000
H     0.293000000     3.788000000    -4.910000000
C     1.263000000     3.683000000    -3.012000000
C     1.533000000     4.397000000    -1.815000000
H     0.826000000     5.162000000    -1.504000000
C     2.179000000     2.723000000    -3.397000000
C     3.334000000     2.451000000    -2.566000000
H     3.920000000     1.572000000    -2.821000000
C     3.503000000     3.124000000    -1.370000000
O     4.414000000     2.629000000    -0.404000000
C     3.807000000     1.829000000     0.597000000
C     4.611000000     0.490000000     0.645000000
C     5.582000000     0.162000000    -0.249000000
H     5.741000000     0.809000000    -1.108000000
C     4.117000000    -0.399000000     1.639000000
H     3.317000000    -0.238000000     2.357000000
O     3.678000000     2.557000000     1.890000000
H     2.812000000     1.558000000     0.212000000
C     2.622000000     4.175000000    -1.025000000
C     2.819000000     4.856000000     0.408000000
H     2.463000000     5.888000000     0.403000000
H     3.848000000     4.856000000     0.774000000
C     1.931000000     4.111000000     1.437000000
C     2.411000000     3.021000000     2.157000000
C     1.657000000     2.448000000     3.203000000
H     2.094000000     1.652000000     3.800000000
C     0.361000000     2.864000000     3.435000000
O    -0.249000000     2.253000000     4.481000000
C    -1.213000000     1.212000000     4.025000000
H    -1.031000000     0.822000000     3.013000000
C    -1.158000000    -0.014000000     4.890000000
C    -2.336000000    -0.724000000     5.050000000
H    -3.273000000    -0.422000000     4.588000000
C     0.082000000    -0.482000000     5.420000000
H     0.996000000     0.100000000     5.331000000
C     0.117000000    -1.705000000     6.047000000
O     1.356000000    -2.238000000     6.452000000
C    -1.079000000    -2.336000000     6.342000000
H    -1.263000000    -3.285000000     6.840000000
C    -2.258000000    -1.780000000     5.895000000
O    -3.469000000    -2.425000000     6.167000000
C    -4.446000000    -2.522000000     5.162000000
C    -4.249000000    -3.266000000     4.006000000
H    -3.313000000    -3.790000000     3.830000000
C    -5.705000000    -2.041000000     5.462000000
H    -6.011000000    -1.636000000     6.423000000
C    -6.701000000    -2.122000000     4.468000000
H    -7.661000000    -1.619000000     4.560000000
C    -6.451000000    -2.674000000     3.168000000
H    -7.317000000    -2.822000000     2.527000000
C    -5.203000000    -3.304000000     2.995000000
O    -4.993000000    -3.952000000     1.795000000
C    -4.810000000    -3.333000000     0.567000000
C    -4.883000000    -4.111000000    -0.599000000
H    -5.090000000    -5.173000000    -0.499000000
C    -4.581000000    -3.523000000    -1.810000000
O    -4.751000000    -4.295000000    -2.965000000
C    -3.866000000    -4.081000000    -3.988000000
C    -2.476000000    -4.246000000    -3.814000000
H    -2.048000000    -4.654000000    -2.902000000
C    -4.358000000    -3.467000000    -5.168000000
H    -5.409000000    -3.202000000    -5.243000000
C    -3.507000000    -2.931000000    -6.026000000
H    -3.948000000    -2.462000000    -6.902000000
C    -2.156000000    -3.084000000    -5.910000000
H    -1.534000000    -2.747000000    -6.736000000
C    -1.612000000    -3.740000000    -4.817000000
O    -0.226000000    -3.909000000    -4.751000000
C     0.694000000    -2.866000000    -4.747000000
C     1.983000000    -3.191000000    -5.050000000
H     2.339000000    -4.162000000    -5.385000000
C     2.986000000    -2.240000000    -5.017000000
O     4.363000000    -2.495000000    -5.217000000
C     5.455000000    -1.902000000    -4.599000000
C     5.628000000    -2.094000000    -3.207000000
H     4.967000000    -2.721000000    -2.614000000
C     6.217000000    -0.947000000    -5.275000000
H     6.175000000    -0.899000000    -6.360000000
C     7.274000000    -0.201000000    -4.590000000
H     7.930000000     0.488000000    -5.115000000
C     7.548000000    -0.543000000    -3.212000000
H     8.285000000     0.040000000    -2.666000000
C     6.692000000    -1.419000000    -2.534000000
O     6.953000000    -1.579000000    -1.219000000
C     6.061000000    -1.127000000    -0.233000000
C     5.702000000    -2.028000000     0.775000000
H     6.204000000    -2.992000000     0.773000000
C     4.653000000    -1.694000000     1.642000000
O     4.196000000    -2.657000000     2.548000000
C     3.944000000    -2.340000000     3.892000000
C     4.976000000    -1.756000000     4.574000000
H     5.896000000    -1.626000000     4.011000000
C     4.877000000    -1.472000000     5.960000000
H     5.687000000    -1.003000000     6.513000000
C     3.606000000    -1.634000000     6.533000000
H     3.367000000    -1.265000000     7.527000000
C     2.528000000    -2.104000000     5.785000000
C     2.682000000    -2.522000000     4.459000000
H     1.831000000    -2.927000000     3.917000000
C    -0.273000000    -2.331000000     1.402000000
H    -0.170000000    -2.885000000     2.332000000
C     0.126000000    -0.989000000     1.257000000
H     0.335000000    -0.428000000     2.165000000
C    -0.042000000    -0.402000000     0.023000000
C    -0.010000000     1.117000000    -0.167000000
H    -0.866000000     1.407000000    -0.779000000
H    -0.047000000     1.645000000     0.788000000
H     0.887000000     1.504000000    -0.656000000
C    -0.629000000    -1.135000000    -0.975000000
H    -0.810000000    -0.647000000    -1.929000000
C    -0.975000000    -2.441000000    -0.835000000
H    -1.290000000    -2.960000000    -1.737000000
C    -0.802000000    -3.066000000     0.344000000
C    -1.113000000    -4.522000000     0.416000000
O    -1.466000000    -5.116000000    -0.610000000
O    -0.905000000    -5.091000000     1.467000000
O    -6.111000000    -8.763000000    -0.301000000
H    -5.311000000    -9.245000000    -0.093000000
H    -6.033000000    -7.947000000     0.193000000
O    -3.380000000   -10.541000000     0.129000000
H    -2.489000000   -10.437000000    -0.205000000
H    -3.301000000   -11.193000000     0.825000000
O    -1.506000000    -7.674000000    -1.661000000
H    -1.636000000    -8.124000000    -0.826000000
H    -1.378000000    -6.756000000    -1.421000000
O    -4.263000000    -6.912000000    -2.721000000
H    -4.165000000    -5.960000000    -2.745000000
H    -3.418000000    -7.232000000    -2.405000000
O    -4.131000000    -8.871000000     3.098000000
H    -3.464000000    -8.552000000     2.490000000
H    -4.659000000    -8.098000000     3.300000000
O     0.530000000    -7.612000000     1.199000000
H     0.316000000    -6.685000000     1.305000000
H     1.035000000    -7.649000000     0.387000000
O     4.045000000    -8.460000000     0.842000000
H     4.079000000    -7.504000000     0.854000000
H     3.940000000    -8.684000000    -0.083000000
O    -0.080000000    -7.079000000    -3.899000000
H    -0.708000000    -7.318000000    -3.217000000
H    -0.565000000    -6.489000000    -4.476000000
O    -5.541000000    -6.579000000     1.420000000
H    -6.396000000    -6.413000000     1.815000000
H    -5.205000000    -5.709000000     1.201000000
O    -0.368000000    -9.951000000     2.018000000
H    -0.608000000   -10.264000000     1.145000000
H    -0.009000000    -9.077000000     1.868000000
O     4.122000000    -6.100000000    -2.833000000
H     5.023000000    -5.948000000    -2.545000000
H     3.591000000    -5.546000000    -2.261000000
O    -2.547000000    -7.138000000     1.883000000
H    -3.415000000    -6.908000000     1.552000000
H    -1.959000000    -6.504000000     1.473000000
O     0.999000000    -6.151000000    -1.382000000
H     0.878000000    -6.639000000    -2.196000000
H     0.111000000    -6.007000000    -1.054000000
O    -2.035000000    -7.111000000     4.731000000
H    -2.259000000    -7.977000000     5.071000000
H    -2.608000000    -6.996000000     3.973000000
O     2.207000000    -7.243000000     4.588000000
H     2.316000000    -7.896000000     3.897000000
H     1.415000000    -6.764000000     4.343000000
O     2.513000000    -4.060000000    -0.288000000
H     1.925000000    -4.643000000    -0.769000000
H     1.964000000    -3.316000000    -0.041000000
O    -2.832000000    -5.770000000     6.905000000
H    -2.562000000    -6.149000000     6.068000000
H    -2.034000000    -5.764000000     7.433000000
O     0.100000000    -5.748000000     3.679000000
H    -0.630000000    -6.193000000     4.111000000
H    -0.173000000    -5.673000000     2.764000000
O     4.274000000    -5.604000000     1.238000000
H     4.301000000    -4.950000000     1.936000000
H     3.458000000    -5.423000000     0.771000000
