218
-1442.66322
C    -3.510000000    -3.119000000    -1.388000000
H    -4.217000000    -2.744000000    -0.653000000
C    -2.209000000    -3.535000000    -0.993000000
C    -1.294000000    -3.896000000    -1.973000000
H    -0.317000000    -4.293000000    -1.707000000
C    -1.817000000    -3.433000000     0.475000000
O    -2.959000000    -3.446000000     1.370000000
H    -1.263000000    -2.486000000     0.549000000
O    -0.984000000    -4.428000000     0.802000000
C     0.177000000    -4.155000000     1.468000000
C     1.395000000    -4.256000000     0.823000000
H     1.451000000    -4.461000000    -0.244000000
C     2.500000000    -3.795000000     1.462000000
O     3.594000000    -3.616000000     0.677000000
C     2.482000000    -3.348000000     2.757000000
C     3.735000000    -2.628000000     3.316000000
H     3.838000000    -2.835000000     4.383000000
C     3.733000000    -1.134000000     2.929000000
C     3.053000000    -0.306000000     3.815000000
H     2.677000000    -0.664000000     4.770000000
H     4.660000000    -3.130000000     3.026000000
C     1.356000000    -3.441000000     3.517000000
H     1.349000000    -3.060000000     4.534000000
C     0.149000000    -3.859000000     2.854000000
C    -1.110000000    -3.844000000     3.676000000
H    -0.834000000    -4.015000000     4.719000000
H    -1.700000000    -4.717000000     3.391000000
C    -2.079000000    -2.700000000     3.471000000
C    -1.983000000    -1.642000000     4.404000000
H    -1.205000000    -1.827000000     5.141000000
C    -2.913000000    -2.591000000     2.401000000
C    -3.705000000    -1.472000000     2.220000000
H    -4.380000000    -1.516000000     1.370000000
C    -3.564000000    -0.379000000     3.143000000
O    -4.229000000     0.794000000     2.805000000
C    -3.526000000     1.915000000     2.172000000
C    -4.401000000     2.696000000     1.284000000
C    -4.244000000     4.028000000     0.974000000
H    -3.514000000     4.636000000     1.503000000
C    -5.158000000     1.942000000     0.351000000
H    -5.090000000     0.864000000     0.476000000
O    -3.061000000     2.781000000     3.185000000
H    -2.667000000     1.722000000     1.513000000
C    -2.580000000    -0.437000000     4.133000000
C    -2.454000000     0.774000000     5.125000000
H    -2.023000000     0.432000000     6.068000000
H    -3.361000000     1.376000000     5.205000000
C    -1.411000000     1.701000000     4.470000000
C    -0.055000000     1.531000000     4.815000000
H     0.215000000     0.826000000     5.597000000
C    -1.728000000     2.666000000     3.560000000
C    -0.828000000     3.527000000     3.010000000
H    -1.189000000     4.215000000     2.250000000
C     0.496000000     3.302000000     3.300000000
O     1.428000000     4.023000000     2.546000000
C     2.029000000     3.236000000     1.517000000
C     2.055000000     3.911000000     0.135000000
C     0.885000000     4.518000000    -0.283000000
H     0.039000000     4.608000000     0.394000000
C     3.170000000     3.720000000    -0.798000000
H     4.090000000     3.308000000    -0.391000000
O     3.420000000     2.907000000     1.941000000
H     1.472000000     2.307000000     1.328000000
C     0.893000000     2.342000000     4.248000000
C     2.351000000     2.008000000     4.522000000
H     2.493000000     1.497000000     5.476000000
H     2.984000000     2.898000000     4.550000000
C     2.951000000     1.096000000     3.490000000
C     3.543000000     1.610000000     2.333000000
C     4.182000000     0.711000000     1.480000000
H     4.636000000     1.085000000     0.566000000
C     4.235000000    -0.637000000     1.772000000
O     4.670000000    -1.492000000     0.788000000
C     3.825000000    -2.392000000     0.034000000
H     2.826000000    -1.931000000     0.005000000
C     4.309000000    -2.559000000    -1.456000000
C     4.110000000    -3.816000000    -2.087000000
H     3.736000000    -4.721000000    -1.615000000
C     4.712000000    -1.442000000    -2.133000000
H     4.889000000    -0.469000000    -1.681000000
C     5.027000000    -1.561000000    -3.447000000
O     5.423000000    -0.461000000    -4.260000000
C     4.738000000    -2.732000000    -4.173000000
H     4.900000000    -2.830000000    -5.243000000
C     4.246000000    -3.871000000    -3.469000000
O     3.945000000    -5.018000000    -4.137000000
C     2.714000000    -5.618000000    -4.075000000
C     1.580000000    -4.790000000    -4.168000000
H     1.682000000    -3.708000000    -4.188000000
C     2.513000000    -6.937000000    -3.861000000
H     3.337000000    -7.609000000    -3.635000000
C     1.223000000    -7.483000000    -3.701000000
H     1.125000000    -8.525000000    -3.409000000
C     0.103000000    -6.673000000    -4.000000000
H    -0.915000000    -7.029000000    -3.861000000
C     0.305000000    -5.225000000    -4.128000000
O    -0.793000000    -4.379000000    -4.350000000
C    -1.700000000    -4.048000000    -3.303000000
C    -3.022000000    -3.697000000    -3.665000000
H    -3.227000000    -3.762000000    -4.730000000
C    -3.874000000    -3.128000000    -2.757000000
O    -5.044000000    -2.573000000    -3.237000000
C    -5.871000000    -1.745000000    -2.548000000
C    -5.729000000    -0.364000000    -2.609000000
H    -4.917000000     0.037000000    -3.210000000
C    -6.775000000    -2.309000000    -1.668000000
H    -6.846000000    -3.386000000    -1.541000000
C    -7.594000000    -1.510000000    -0.911000000
H    -8.266000000    -1.869000000    -0.136000000
C    -7.455000000    -0.127000000    -0.987000000
H    -7.958000000     0.460000000    -0.223000000
C    -6.548000000     0.458000000    -1.839000000
O    -6.230000000     1.779000000    -1.894000000
C    -5.784000000     2.539000000    -0.757000000
C    -5.685000000     3.894000000    -0.906000000
H    -6.093000000     4.456000000    -1.743000000
C    -4.984000000     4.657000000    -0.048000000
O    -4.773000000     6.013000000    -0.357000000
C    -3.443000000     6.491000000    -0.517000000
C    -2.435000000     5.732000000    -1.197000000
H    -2.700000000     4.743000000    -1.560000000
C    -3.091000000     7.772000000    -0.071000000
H    -3.870000000     8.354000000     0.415000000
C    -1.817000000     8.276000000    -0.249000000
H    -1.606000000     9.303000000     0.040000000
C    -0.857000000     7.574000000    -0.993000000
H     0.075000000     8.104000000    -1.173000000
C    -1.173000000     6.240000000    -1.441000000
O    -0.334000000     5.455000000    -2.164000000
C     0.852000000     4.983000000    -1.596000000
C     1.973000000     4.850000000    -2.441000000
H     1.824000000     5.253000000    -3.440000000
C     3.142000000     4.220000000    -2.120000000
O     4.192000000     3.990000000    -2.960000000
C     5.117000000     2.964000000    -2.975000000
C     6.404000000     3.278000000    -2.524000000
H     6.599000000     4.279000000    -2.148000000
C     7.428000000     2.286000000    -2.729000000
H     8.438000000     2.480000000    -2.378000000
C     7.107000000     1.073000000    -3.258000000
H     7.906000000     0.365000000    -3.460000000
C     5.791000000     0.731000000    -3.656000000
C     4.753000000     1.679000000    -3.475000000
H     3.749000000     1.424000000    -3.806000000
C     0.801000000     1.465000000    -1.656000000
H     1.699000000     1.910000000    -2.076000000
C     0.983000000     0.755000000    -0.481000000
H     1.946000000     0.667000000     0.017000000
C    -0.087000000     0.333000000     0.275000000
C    -0.015000000    -0.248000000     1.630000000
H    -0.912000000    -0.703000000     2.055000000
H     0.740000000    -1.037000000     1.674000000
H     0.217000000     0.640000000     2.222000000
C    -1.324000000     0.501000000    -0.229000000
H    -2.177000000     0.191000000     0.370000000
C    -1.565000000     1.200000000    -1.414000000
H    -2.617000000     1.333000000    -1.651000000
C    -0.502000000     1.652000000    -2.186000000
C    -0.696000000     2.387000000    -3.479000000
O    -1.795000000     2.444000000    -3.911000000
O     0.211000000     2.723000000    -4.233000000
O    -1.610000000    -1.690000000    -5.759000000
H    -0.788000000    -1.762000000    -5.274000000
H    -1.574000000    -2.401000000    -6.399000000
O     5.536000000     5.714000000    -5.014000000
H     5.885000000     6.139000000    -4.231000000
H     4.617000000     5.548000000    -4.807000000
O    -5.129000000     6.259000000    -3.709000000
H    -4.873000000     7.156000000    -3.495000000
H    -4.317000000     5.756000000    -3.646000000
O    -2.640000000     5.057000000    -4.299000000
H    -2.243000000     4.279000000    -3.910000000
H    -1.906000000     5.656000000    -4.441000000
O     1.175000000     6.815000000    -6.251000000
H     0.487000000     7.281000000    -6.727000000
H     0.820000000     5.936000000    -6.117000000
O    -0.364000000     4.657000000    -6.135000000
H    -0.024000000     4.269000000    -5.328000000
H    -1.107000000     4.103000000    -6.373000000
O    -1.872000000     3.301000000    -8.720000000
H    -1.618000000     2.958000000    -9.577000000
H    -2.090000000     2.523000000    -8.206000000
O    -7.643000000     1.546000000    -5.791000000
H    -6.759000000     1.570000000    -5.425000000
H    -7.528000000     1.788000000    -6.710000000
O     3.874000000     4.174000000    -8.012000000
H     3.127000000     3.946000000    -7.460000000
H     4.052000000     3.378000000    -8.515000000
O    -0.028000000     0.192000000    -8.558000000
H     0.333000000     0.452000000    -7.711000000
H     0.235000000     0.893000000    -9.156000000
O    -4.371000000     3.566000000    -5.691000000
H    -3.981000000     4.189000000    -5.079000000
H    -3.740000000     2.848000000    -5.738000000
O     1.095000000    -1.550000000    -3.028000000
H     1.357000000    -0.654000000    -2.818000000
H     0.597000000    -1.840000000    -2.264000000
O    -2.326000000     1.541000000    -6.284000000
H    -2.144000000     1.916000000    -5.423000000
H    -1.765000000     0.767000000    -6.331000000
O     1.124000000     1.092000000    -6.338000000
H     1.459000000     1.794000000    -6.896000000
H     0.929000000     1.520000000    -5.505000000
O    -3.167000000     5.737000000    -8.282000000
H    -2.670000000     6.183000000    -7.596000000
H    -2.875000000     4.826000000    -8.234000000
O     1.378000000     2.837000000    -8.450000000
H     0.653000000     3.409000000    -8.702000000
H     1.844000000     2.667000000    -9.268000000
O    -4.374000000    -0.056000000    -6.347000000
H    -3.774000000     0.689000000    -6.309000000
H    -3.857000000    -0.797000000    -6.032000000
O     2.527000000     3.560000000    -5.274000000
H     1.696000000     3.284000000    -4.888000000
H     3.192000000     3.089000000    -4.771000000
O     2.294000000    -1.396000000    -5.695000000
H     1.955000000    -0.511000000    -5.835000000
H     1.990000000    -1.633000000    -4.819000000
