218
-1471.17007
C    -4.168000000    -1.983000000    -0.717000000
H    -4.501000000    -1.314000000     0.072000000
C    -3.381000000    -3.127000000    -0.419000000
C    -3.133000000    -4.085000000    -1.462000000
H    -2.502000000    -4.959000000    -1.318000000
C    -2.621000000    -3.166000000     0.856000000
O    -3.532000000    -2.872000000     1.915000000
H    -1.760000000    -2.488000000     0.950000000
O    -1.973000000    -4.489000000     1.123000000
C    -0.670000000    -4.372000000     1.383000000
C     0.222000000    -4.491000000     0.282000000
H    -0.145000000    -4.698000000    -0.720000000
C     1.579000000    -4.392000000     0.612000000
O     2.362000000    -4.429000000    -0.494000000
C     1.995000000    -4.088000000     1.927000000
C     3.471000000    -3.880000000     2.224000000
H     3.713000000    -4.066000000     3.272000000
C     3.843000000    -2.426000000     1.925000000
C     3.881000000    -1.469000000     2.977000000
H     3.454000000    -1.845000000     3.903000000
H     4.052000000    -4.554000000     1.590000000
C     1.081000000    -3.840000000     2.941000000
H     1.489000000    -3.414000000     3.854000000
C    -0.271000000    -4.015000000     2.677000000
C    -1.372000000    -3.788000000     3.806000000
H    -0.990000000    -3.912000000     4.821000000
H    -2.182000000    -4.500000000     3.638000000
C    -1.940000000    -2.367000000     3.745000000
C    -1.328000000    -1.351000000     4.530000000
H    -0.375000000    -1.550000000     5.013000000
C    -3.055000000    -1.982000000     2.908000000
C    -3.541000000    -0.668000000     2.837000000
H    -4.401000000    -0.349000000     2.252000000
C    -2.829000000     0.267000000     3.617000000
O    -3.207000000     1.596000000     3.647000000
C    -2.420000000     2.420000000     2.826000000
C    -3.333000000     3.396000000     2.049000000
C    -2.744000000     4.522000000     1.535000000
H    -1.728000000     4.762000000     1.839000000
C    -4.524000000     2.988000000     1.419000000
H    -5.067000000     2.097000000     1.726000000
O    -1.472000000     3.185000000     3.588000000
H    -1.897000000     1.862000000     2.035000000
C    -1.746000000    -0.059000000     4.441000000
C    -1.089000000     0.918000000     5.400000000
H    -0.846000000     0.281000000     6.253000000
H    -1.767000000     1.688000000     5.774000000
C     0.046000000     1.601000000     4.632000000
C     1.324000000     1.144000000     4.772000000
H     1.539000000     0.326000000     5.455000000
C    -0.218000000     2.693000000     3.807000000
C     0.865000000     3.361000000     3.231000000
H     0.687000000     4.327000000     2.765000000
C     2.114000000     2.690000000     3.148000000
O     3.096000000     3.232000000     2.334000000
C     3.441000000     2.524000000     1.057000000
C     3.398000000     3.417000000    -0.173000000
C     2.568000000     4.533000000    -0.156000000
H     1.964000000     4.684000000     0.736000000
C     4.045000000     3.043000000    -1.332000000
H     4.537000000     2.075000000    -1.380000000
O     4.614000000     1.669000000     1.145000000
H     2.648000000     1.767000000     0.971000000
C     2.395000000     1.518000000     3.937000000
C     3.834000000     0.859000000     3.898000000
H     4.045000000     0.316000000     4.822000000
H     4.603000000     1.634000000     3.882000000
C     4.090000000    -0.099000000     2.782000000
C     4.406000000     0.359000000     1.484000000
C     4.518000000    -0.556000000     0.434000000
H     4.734000000    -0.135000000    -0.544000000
C     4.207000000    -1.925000000     0.635000000
O     4.083000000    -2.731000000    -0.435000000
C     2.763000000    -3.127000000    -0.986000000
H     2.076000000    -2.326000000    -0.676000000
C     2.817000000    -3.127000000    -2.533000000
C     2.101000000    -4.009000000    -3.311000000
H     1.453000000    -4.738000000    -2.831000000
C     3.623000000    -2.229000000    -3.218000000
H     4.321000000    -1.562000000    -2.719000000
C     3.486000000    -2.083000000    -4.599000000
O     4.260000000    -1.171000000    -5.266000000
C     2.648000000    -2.800000000    -5.324000000
H     2.502000000    -2.635000000    -6.388000000
C     1.900000000    -3.818000000    -4.692000000
O     1.118000000    -4.586000000    -5.498000000
C    -0.029000000    -5.216000000    -5.091000000
C    -1.161000000    -4.525000000    -4.628000000
H    -1.212000000    -3.448000000    -4.765000000
C     0.083000000    -6.597000000    -4.805000000
H     0.987000000    -7.107000000    -5.130000000
C    -0.976000000    -7.313000000    -4.291000000
H    -0.887000000    -8.392000000    -4.191000000
C    -2.123000000    -6.622000000    -3.962000000
H    -2.984000000    -7.143000000    -3.551000000
C    -2.263000000    -5.249000000    -4.096000000
O    -3.463000000    -4.601000000    -3.835000000
C    -3.731000000    -3.852000000    -2.735000000
C    -4.447000000    -2.669000000    -3.010000000
H    -4.753000000    -2.433000000    -4.026000000
C    -4.731000000    -1.755000000    -1.987000000
O    -5.392000000    -0.585000000    -2.269000000
C    -6.172000000     0.066000000    -1.373000000
C    -5.874000000     1.424000000    -1.153000000
H    -5.095000000     1.922000000    -1.724000000
C    -7.273000000    -0.544000000    -0.822000000
H    -7.487000000    -1.547000000    -1.183000000
C    -8.069000000     0.163000000     0.115000000
H    -8.981000000    -0.358000000     0.397000000
C    -7.722000000     1.453000000     0.432000000
H    -8.408000000     1.941000000     1.119000000
C    -6.702000000     2.092000000    -0.234000000
O    -6.385000000     3.436000000    -0.059000000
C    -5.207000000     3.864000000     0.544000000
C    -4.638000000     4.978000000     0.091000000
H    -5.096000000     5.657000000    -0.623000000
C    -3.417000000     5.344000000     0.618000000
O    -2.846000000     6.524000000     0.148000000
C    -1.539000000     6.916000000     0.281000000
C    -0.588000000     6.531000000    -0.684000000
H    -0.834000000     5.913000000    -1.544000000
C    -1.187000000     7.685000000     1.417000000
H    -1.948000000     8.041000000     2.106000000
C     0.150000000     8.003000000     1.606000000
H     0.497000000     8.544000000     2.483000000
C     1.139000000     7.586000000     0.706000000
H     2.189000000     7.848000000     0.812000000
C     0.761000000     6.860000000    -0.445000000
O     1.712000000     6.528000000    -1.343000000
C     2.473000000     5.359000000    -1.319000000
C     3.188000000     4.956000000    -2.487000000
H     3.125000000     5.594000000    -3.364000000
C     3.920000000     3.784000000    -2.522000000
O     4.345000000     3.315000000    -3.765000000
C     4.967000000     2.166000000    -3.953000000
C     6.279000000     1.943000000    -3.434000000
H     6.788000000     2.730000000    -2.884000000
C     6.796000000     0.674000000    -3.398000000
H     7.767000000     0.457000000    -2.961000000
C     6.158000000    -0.333000000    -4.105000000
H     6.678000000    -1.267000000    -4.303000000
C     4.828000000    -0.174000000    -4.515000000
C     4.230000000     1.063000000    -4.432000000
H     3.208000000     1.255000000    -4.748000000
C     1.149000000     0.754000000    -2.754000000
H     1.851000000     1.446000000    -3.212000000
C     1.311000000     0.385000000    -1.454000000
H     2.180000000     0.730000000    -0.899000000
C     0.349000000    -0.256000000    -0.783000000
C     0.599000000    -0.593000000     0.689000000
H     1.449000000    -0.047000000     1.104000000
H    -0.300000000    -0.407000000     1.280000000
H     0.763000000    -1.663000000     0.834000000
C    -0.936000000    -0.359000000    -1.361000000
H    -1.721000000    -0.782000000    -0.739000000
C    -1.147000000     0.017000000    -2.671000000
H    -2.145000000    -0.010000000    -3.099000000
C    -0.057000000     0.521000000    -3.405000000
C    -0.210000000     1.080000000    -4.820000000
O    -1.217000000     1.000000000    -5.483000000
O     0.657000000     1.737000000    -5.301000000
O    -0.548000000    -2.670000000    -7.391000000
H    -1.204000000    -2.009000000    -7.170000000
H    -1.038000000    -3.490000000    -7.435000000
O    -0.826000000     6.113000000    -8.555000000
H     0.010000000     6.478000000    -8.267000000
H    -0.908000000     5.291000000    -8.071000000
O    -0.061000000     3.259000000    -0.993000000
H     0.116000000     2.319000000    -1.031000000
H    -0.973000000     3.342000000    -1.270000000
O     0.205000000     4.213000000    -3.719000000
H     0.527000000     3.475000000    -4.238000000
H     0.387000000     3.965000000    -2.812000000
O    -3.330000000     2.555000000    -4.703000000
H    -4.018000000     2.326000000    -5.327000000
H    -2.593000000     1.992000000    -4.940000000
O    -2.769000000     2.070000000    -9.871000000
H    -2.783000000     2.521000000    -9.026000000
H    -2.054000000     2.486000000   -10.353000000
O    -2.284000000    -0.459000000    -7.484000000
H    -2.067000000     0.161000000    -6.788000000
H    -3.063000000    -0.915000000    -7.164000000
O    -2.830000000     3.098000000    -1.955000000
H    -3.468000000     2.997000000    -1.249000000
H    -3.114000000     2.477000000    -2.625000000
O     4.167000000     3.012000000    -7.698000000
H     3.927000000     3.146000000    -8.615000000
H     3.398000000     3.298000000    -7.205000000
O     1.695000000     2.575000000    -9.511000000
H     1.726000000     1.644000000    -9.291000000
H     0.764000000     2.763000000    -9.631000000
O     1.930000000     3.887000000    -6.311000000
H     1.243000000     4.170000000    -6.915000000
H     1.609000000     3.060000000    -5.953000000
O    -2.596000000    -0.551000000   -10.332000000
H    -2.716000000     0.394000000   -10.422000000
H    -2.630000000    -0.707000000    -9.388000000
O    -3.892000000     3.525000000    -7.430000000
H    -3.972000000     4.474000000    -7.332000000
H    -4.707000000     3.177000000    -7.069000000
O    -1.170000000     3.352000000    -7.141000000
H    -2.120000000     3.314000000    -7.253000000
H    -0.993000000     2.769000000    -6.402000000
O     1.712000000    -1.690000000    -8.578000000
H     1.348000000    -0.827000000    -8.379000000
H     1.141000000    -2.304000000    -8.115000000
O     0.540000000     0.576000000    -8.012000000
H    -0.321000000     0.168000000    -8.104000000
H     0.509000000     1.014000000    -7.162000000
O     0.650000000     6.847000000    -4.245000000
H     0.725000000     5.893000000    -4.208000000
H    -0.255000000     7.026000000    -3.987000000
O     3.961000000     0.250000000    -7.941000000
H     3.931000000     1.206000000    -7.989000000
H     3.557000000     0.040000000    -7.099000000
O    -2.701000000     5.245000000    -4.013000000
H    -3.281000000     4.499000000    -4.166000000
H    -2.122000000     4.958000000    -3.307000000
