218
-1469.41305
C    -4.883000000    -1.773000000    -0.462000000
H    -5.208000000    -1.374000000     0.495000000
C    -3.774000000    -2.602000000    -0.451000000
C    -3.354000000    -3.086000000    -1.716000000
H    -2.479000000    -3.729000000    -1.675000000
C    -2.969000000    -2.889000000     0.828000000
O    -3.644000000    -2.633000000     2.093000000
H    -2.142000000    -2.165000000     0.828000000
O    -2.514000000    -4.256000000     0.886000000
C    -1.149000000    -4.390000000     1.189000000
C    -0.288000000    -4.479000000     0.175000000
H    -0.649000000    -4.533000000    -0.849000000
C     1.089000000    -4.461000000     0.390000000
O     1.990000000    -4.532000000    -0.688000000
C     1.575000000    -4.299000000     1.716000000
C     3.090000000    -4.115000000     2.050000000
H     3.081000000    -4.367000000     3.113000000
C     3.628000000    -2.754000000     1.753000000
C     3.602000000    -1.853000000     2.799000000
H     3.201000000    -2.126000000     3.772000000
H     3.706000000    -4.842000000     1.516000000
C     0.631000000    -4.115000000     2.757000000
H     0.942000000    -3.901000000     3.776000000
C    -0.710000000    -4.249000000     2.508000000
C    -1.669000000    -3.983000000     3.693000000
H    -1.250000000    -4.357000000     4.630000000
H    -2.586000000    -4.546000000     3.508000000
C    -1.943000000    -2.507000000     3.822000000
C    -1.198000000    -1.711000000     4.755000000
H    -0.468000000    -2.157000000     5.426000000
C    -2.960000000    -1.973000000     3.059000000
C    -3.250000000    -0.627000000     3.158000000
H    -3.906000000    -0.149000000     2.434000000
C    -2.540000000     0.153000000     4.093000000
O    -2.793000000     1.537000000     4.056000000
C    -1.820000000     2.312000000     3.343000000
C    -2.536000000     3.335000000     2.422000000
C    -2.028000000     4.658000000     2.459000000
H    -1.163000000     4.922000000     3.061000000
C    -3.651000000     3.088000000     1.649000000
H    -4.037000000     2.073000000     1.591000000
O    -0.928000000     2.941000000     4.191000000
H    -1.288000000     1.558000000     2.745000000
C    -1.519000000    -0.372000000     4.892000000
C    -0.591000000     0.514000000     5.698000000
H    -0.295000000    -0.073000000     6.570000000
H    -1.198000000     1.344000000     6.064000000
C     0.479000000     1.137000000     4.857000000
C     1.683000000     0.530000000     4.701000000
H     1.916000000    -0.378000000     5.251000000
C     0.308000000     2.349000000     4.203000000
C     1.300000000     2.967000000     3.418000000
H     1.131000000     3.953000000     2.991000000
C     2.444000000     2.257000000     3.166000000
O     3.345000000     2.876000000     2.306000000
C     3.557000000     2.120000000     1.049000000
C     3.617000000     3.002000000    -0.207000000
C     2.565000000     3.951000000    -0.301000000
H     1.912000000     4.247000000     0.516000000
C     4.421000000     2.789000000    -1.325000000
H     5.128000000     1.964000000    -1.361000000
O     4.801000000     1.241000000     1.111000000
H     2.744000000     1.412000000     0.829000000
C     2.690000000     1.097000000     3.893000000
C     4.049000000     0.437000000     3.750000000
H     4.240000000    -0.115000000     4.673000000
H     4.720000000     1.253000000     3.471000000
C     4.071000000    -0.509000000     2.626000000
C     4.472000000    -0.128000000     1.362000000
C     4.532000000    -0.993000000     0.295000000
H     4.913000000    -0.617000000    -0.651000000
C     3.969000000    -2.286000000     0.443000000
O     3.754000000    -3.041000000    -0.708000000
C     2.475000000    -3.279000000    -1.238000000
H     1.745000000    -2.567000000    -0.828000000
C     2.389000000    -3.232000000    -2.763000000
C     1.437000000    -3.865000000    -3.539000000
H     0.821000000    -4.608000000    -3.040000000
C     3.149000000    -2.340000000    -3.474000000
H     3.940000000    -1.815000000    -2.946000000
C     3.154000000    -2.219000000    -4.902000000
O     4.113000000    -1.502000000    -5.527000000
C     2.324000000    -3.014000000    -5.668000000
H     2.323000000    -2.876000000    -6.746000000
C     1.439000000    -3.877000000    -4.919000000
O     0.605000000    -4.785000000    -5.625000000
C    -0.692000000    -5.012000000    -5.274000000
C    -1.552000000    -4.005000000    -4.766000000
H    -1.178000000    -2.985000000    -4.768000000
C    -1.108000000    -6.331000000    -5.249000000
H    -0.459000000    -7.175000000    -5.467000000
C    -2.381000000    -6.687000000    -4.776000000
H    -2.662000000    -7.737000000    -4.787000000
C    -3.220000000    -5.692000000    -4.272000000
H    -4.267000000    -5.897000000    -4.064000000
C    -2.829000000    -4.371000000    -4.323000000
O    -3.743000000    -3.401000000    -4.085000000
C    -4.002000000    -2.750000000    -2.859000000
C    -5.144000000    -1.945000000    -2.852000000
H    -5.671000000    -1.657000000    -3.758000000
C    -5.535000000    -1.461000000    -1.652000000
O    -6.707000000    -0.751000000    -1.537000000
C    -6.816000000     0.487000000    -0.896000000
C    -5.761000000     1.414000000    -0.808000000
H    -4.798000000     1.182000000    -1.257000000
C    -8.024000000     0.784000000    -0.303000000
H    -8.752000000    -0.020000000    -0.240000000
C    -8.187000000     2.009000000     0.356000000
H    -9.088000000     2.166000000     0.943000000
C    -7.238000000     2.971000000     0.391000000
H    -7.368000000     4.009000000     0.686000000
C    -5.971000000     2.686000000    -0.148000000
O    -5.016000000     3.673000000    -0.218000000
C    -4.092000000     4.051000000     0.742000000
C    -3.586000000     5.321000000     0.811000000
H    -3.817000000     5.999000000    -0.007000000
C    -2.606000000     5.673000000     1.699000000
O    -1.893000000     6.848000000     1.693000000
C    -0.664000000     6.968000000     1.061000000
C    -0.233000000     6.224000000    -0.005000000
H    -0.784000000     5.358000000    -0.364000000
C    -0.001000000     8.171000000     1.313000000
H    -0.356000000     8.866000000     2.068000000
C     1.250000000     8.366000000     0.679000000
H     1.828000000     9.233000000     0.990000000
C     1.784000000     7.491000000    -0.256000000
H     2.649000000     7.842000000    -0.813000000
C     0.977000000     6.447000000    -0.625000000
O     1.393000000     5.623000000    -1.642000000
C     2.370000000     4.667000000    -1.490000000
C     3.139000000     4.388000000    -2.625000000
H     2.841000000     4.757000000    -3.604000000
C     4.171000000     3.434000000    -2.545000000
O     4.762000000     2.995000000    -3.732000000
C     5.229000000     1.743000000    -3.971000000
C     6.489000000     1.388000000    -3.502000000
H     7.029000000     2.169000000    -2.972000000
C     7.010000000     0.080000000    -3.722000000
H     7.981000000    -0.166000000    -3.300000000
C     6.152000000    -0.894000000    -4.345000000
H     6.470000000    -1.931000000    -4.408000000
C     4.873000000    -0.562000000    -4.854000000
C     4.463000000     0.817000000    -4.638000000
H     3.454000000     1.158000000    -4.853000000
C     0.183000000    -0.046000000    -3.167000000
H     0.937000000    -0.044000000    -3.949000000
C     0.480000000    -0.216000000    -1.833000000
H     1.520000000    -0.395000000    -1.573000000
C    -0.477000000    -0.175000000    -0.833000000
C    -0.113000000    -0.380000000     0.584000000
H     0.177000000    -1.425000000     0.710000000
H     0.816000000     0.154000000     0.795000000
H    -0.933000000    -0.135000000     1.262000000
C    -1.775000000     0.116000000    -1.080000000
H    -2.438000000     0.259000000    -0.231000000
C    -2.177000000     0.169000000    -2.415000000
H    -3.216000000     0.264000000    -2.721000000
C    -1.203000000     0.034000000    -3.483000000
C    -1.566000000     0.182000000    -4.901000000
O    -2.714000000     0.363000000    -5.223000000
O    -0.642000000     0.377000000    -5.705000000
O    -3.482000000    -2.736000000    -8.294000000
H    -3.085000000    -1.869000000    -8.207000000
H    -2.824000000    -3.256000000    -8.756000000
O     0.467000000     5.209000000    -4.499000000
H     0.758000000     5.902000000    -3.905000000
H    -0.219000000     5.618000000    -5.025000000
O    -7.708000000     1.480000000    -3.754000000
H    -6.856000000     1.259000000    -4.130000000
H    -8.034000000     0.655000000    -3.396000000
O    -2.159000000     4.168000000    -4.186000000
H    -1.715000000     3.930000000    -3.372000000
H    -1.880000000     3.503000000    -4.815000000
O     1.109000000     2.561000000    -5.088000000
H     0.345000000     2.003000000    -5.234000000
H     0.742000000     3.414000000    -4.856000000
O    -5.611000000     4.065000000    -5.179000000
H    -6.497000000     3.912000000    -5.508000000
H    -5.323000000     3.210000000    -4.859000000
O    -5.375000000     1.055000000    -5.165000000
H    -5.663000000     0.440000000    -5.841000000
H    -4.425000000     0.940000000    -5.127000000
O    -5.414000000    -4.466000000    -7.339000000
H    -5.065000000    -3.619000000    -7.618000000
H    -5.404000000    -4.425000000    -6.382000000
O    -2.989000000     5.437000000    -8.673000000
H    -2.690000000     4.529000000    -8.706000000
H    -3.624000000     5.454000000    -7.957000000
O    -4.931000000     5.073000000    -2.583000000
H    -5.148000000     4.707000000    -3.440000000
H    -4.999000000     4.331000000    -1.982000000
O    -2.853000000    -0.153000000    -8.199000000
H    -2.587000000     0.083000000    -7.310000000
H    -2.601000000     0.601000000    -8.732000000
O    -2.923000000     2.632000000    -9.073000000
H    -3.867000000     2.769000000    -9.150000000
H    -2.578000000     2.845000000    -9.940000000
O     1.591000000     4.379000000    -7.420000000
H     1.603000000     5.294000000    -7.140000000
H     1.369000000     3.889000000    -6.628000000
O    -3.528000000     5.933000000    -5.718000000
H    -3.021000000     5.237000000    -5.299000000
H    -4.418000000     5.585000000    -5.768000000
O    -2.105000000     2.868000000    -6.489000000
H    -2.093000000     1.966000000    -6.171000000
H    -2.391000000     2.797000000    -7.400000000
O     1.328000000     0.597000000    -7.424000000
H     1.273000000     1.553000000    -7.414000000
H     0.599000000     0.309000000    -6.874000000
O    -5.881000000    -1.181000000    -7.236000000
H    -4.971000000    -1.237000000    -7.526000000
H    -6.392000000    -1.461000000    -7.995000000
O    -0.590000000     3.042000000    -1.949000000
H    -0.686000000     2.129000000    -2.222000000
H     0.327000000     3.250000000    -2.127000000
O     3.756000000    -0.340000000    -8.071000000
H     4.003000000    -0.973000000    -7.397000000
H     2.857000000    -0.095000000    -7.852000000
