218
-1469.73515
C    -4.124000000    -3.316000000    -0.772000000
H    -4.369000000    -2.792000000     0.149000000
C    -2.886000000    -3.952000000    -0.774000000
C    -2.509000000    -4.661000000    -1.887000000
H    -1.547000000    -5.160000000    -1.967000000
C    -2.006000000    -3.879000000     0.495000000
O    -2.818000000    -4.109000000     1.673000000
H    -1.443000000    -2.936000000     0.550000000
O    -1.086000000    -4.974000000     0.373000000
C     0.234000000    -4.707000000     0.644000000
C     1.008000000    -4.354000000    -0.429000000
H     0.425000000    -4.314000000    -1.345000000
C     2.315000000    -3.886000000    -0.240000000
O     3.025000000    -3.506000000    -1.332000000
C     2.820000000    -3.841000000     1.019000000
C     4.214000000    -3.280000000     1.252000000
H     4.593000000    -3.671000000     2.198000000
C     4.270000000    -1.745000000     1.334000000
C     4.140000000    -1.037000000     2.553000000
H     4.084000000    -1.615000000     3.472000000
H     4.831000000    -3.736000000     0.475000000
C     2.061000000    -4.186000000     2.114000000
H     2.467000000    -4.113000000     3.120000000
C     0.712000000    -4.546000000     1.936000000
C    -0.222000000    -4.708000000     3.093000000
H     0.382000000    -4.986000000     3.959000000
H    -0.896000000    -5.548000000     2.910000000
C    -1.162000000    -3.572000000     3.353000000
C    -0.744000000    -2.582000000     4.272000000
H     0.101000000    -2.838000000     4.905000000
C    -2.391000000    -3.287000000     2.706000000
C    -3.031000000    -2.053000000     2.884000000
H    -3.918000000    -1.814000000     2.302000000
C    -2.548000000    -1.055000000     3.687000000
O    -3.241000000     0.160000000     3.637000000
C    -2.367000000     1.176000000     3.006000000
C    -3.135000000     2.048000000     2.131000000
C    -2.953000000     3.467000000     2.015000000
H    -2.266000000     3.950000000     2.706000000
C    -4.112000000     1.492000000     1.300000000
H    -4.213000000     0.410000000     1.277000000
O    -1.651000000     1.947000000     4.069000000
H    -1.527000000     0.784000000     2.415000000
C    -1.404000000    -1.333000000     4.480000000
C    -0.716000000    -0.436000000     5.419000000
H    -0.121000000    -1.006000000     6.136000000
H    -1.456000000     0.071000000     6.042000000
C     0.225000000     0.591000000     4.852000000
C     1.594000000     0.350000000     4.786000000
H     1.945000000    -0.565000000     5.255000000
C    -0.302000000     1.703000000     4.180000000
C     0.485000000     2.590000000     3.511000000
H     0.102000000     3.514000000     3.085000000
C     1.855000000     2.364000000     3.475000000
O     2.518000000     3.299000000     2.733000000
C     2.880000000     3.042000000     1.358000000
C     2.883000000     4.281000000     0.501000000
C     1.924000000     5.241000000     0.831000000
H     1.166000000     5.130000000     1.603000000
C     3.594000000     4.300000000    -0.658000000
H     4.345000000     3.533000000    -0.830000000
O     4.149000000     2.417000000     1.353000000
H     2.192000000     2.299000000     0.926000000
C     2.427000000     1.199000000     4.008000000
C     3.861000000     1.026000000     3.918000000
H     4.234000000     0.438000000     4.760000000
H     4.364000000     1.991000000     4.007000000
C     4.123000000     0.341000000     2.631000000
C     4.310000000     1.038000000     1.458000000
C     4.358000000     0.417000000     0.174000000
H     4.377000000     1.004000000    -0.741000000
C     4.347000000    -0.962000000     0.104000000
O     4.348000000    -1.542000000    -1.135000000
C     3.090000000    -2.050000000    -1.586000000
H     2.337000000    -1.513000000    -0.991000000
C     2.730000000    -1.671000000    -3.050000000
C     2.014000000    -2.511000000    -3.851000000
H     1.706000000    -3.503000000    -3.529000000
C     3.010000000    -0.374000000    -3.507000000
H     3.750000000     0.200000000    -2.956000000
C     2.690000000     0.032000000    -4.759000000
O     3.085000000     1.242000000    -5.273000000
C     1.935000000    -0.775000000    -5.543000000
H     1.718000000    -0.534000000    -6.580000000
C     1.671000000    -2.117000000    -5.182000000
O     0.849000000    -2.909000000    -5.944000000
C     0.272000000    -4.072000000    -5.449000000
C    -1.095000000    -4.083000000    -4.995000000
H    -1.667000000    -3.159000000    -5.012000000
C     0.969000000    -5.289000000    -5.543000000
H     2.021000000    -5.276000000    -5.816000000
C     0.263000000    -6.452000000    -5.284000000
H     0.748000000    -7.422000000    -5.357000000
C    -1.031000000    -6.473000000    -4.777000000
H    -1.576000000    -7.396000000    -4.595000000
C    -1.694000000    -5.236000000    -4.709000000
O    -2.990000000    -5.350000000    -4.230000000
C    -3.339000000    -4.715000000    -3.041000000
C    -4.595000000    -4.084000000    -2.951000000
H    -5.291000000    -4.110000000    -3.785000000
C    -4.982000000    -3.291000000    -1.857000000
O    -6.286000000    -2.764000000    -1.905000000
C    -6.679000000    -1.754000000    -1.054000000
C    -6.015000000    -0.564000000    -1.156000000
H    -5.225000000    -0.457000000    -1.895000000
C    -7.630000000    -1.895000000    -0.061000000
H    -8.152000000    -2.820000000     0.172000000
C    -7.854000000    -0.901000000     0.900000000
H    -8.596000000    -1.038000000     1.683000000
C    -7.131000000     0.312000000     0.736000000
H    -7.140000000     1.119000000     1.464000000
C    -6.319000000     0.461000000    -0.306000000
O    -5.686000000     1.659000000    -0.534000000
C    -4.864000000     2.253000000     0.406000000
C    -4.750000000     3.640000000     0.378000000
H    -5.294000000     4.188000000    -0.387000000
C    -3.679000000     4.237000000     1.095000000
O    -3.515000000     5.537000000     0.889000000
C    -2.450000000     6.253000000     1.460000000
C    -1.296000000     6.474000000     0.666000000
H    -1.274000000     5.938000000    -0.280000000
C    -2.547000000     6.890000000     2.721000000
H    -3.384000000     6.822000000     3.411000000
C    -1.413000000     7.622000000     3.146000000
H    -1.379000000     8.010000000     4.161000000
C    -0.250000000     7.780000000     2.360000000
H     0.589000000     8.398000000     2.670000000
C    -0.218000000     7.211000000     1.102000000
O     0.892000000     7.381000000     0.231000000
C     1.726000000     6.273000000    -0.048000000
C     2.454000000     6.337000000    -1.221000000
H     2.191000000     7.143000000    -1.901000000
C     3.312000000     5.315000000    -1.577000000
O     3.857000000     5.310000000    -2.889000000
C     4.359000000     4.215000000    -3.499000000
C     5.728000000     4.167000000    -3.915000000
H     6.375000000     5.020000000    -3.728000000
C     6.144000000     3.111000000    -4.732000000
H     7.190000000     3.032000000    -5.015000000
C     5.223000000     2.102000000    -5.014000000
H     5.505000000     1.313000000    -5.707000000
C     3.916000000     2.107000000    -4.629000000
C     3.469000000     3.221000000    -3.868000000
H     2.408000000     3.254000000    -3.635000000
C     0.047000000     1.040000000    -2.294000000
H     0.695000000     1.374000000    -3.100000000
C     0.766000000     0.584000000    -1.180000000
H     1.840000000     0.751000000    -1.206000000
C     0.007000000    -0.038000000    -0.138000000
C     0.679000000    -0.620000000     1.160000000
H     1.237000000     0.163000000     1.677000000
H    -0.034000000    -0.996000000     1.897000000
H     1.410000000    -1.425000000     1.057000000
C    -1.346000000     0.009000000    -0.162000000
H    -1.900000000    -0.351000000     0.701000000
C    -2.028000000     0.609000000    -1.199000000
H    -3.105000000     0.609000000    -1.347000000
C    -1.339000000     1.002000000    -2.406000000
C    -1.963000000     1.216000000    -3.695000000
O    -3.153000000     1.259000000    -3.866000000
O    -1.315000000     1.477000000    -4.654000000
O     2.647000000     1.696000000    -8.191000000
H     2.088000000     1.435000000    -7.459000000
H     2.627000000     0.947000000    -8.786000000
O     0.644000000     4.073000000    -8.109000000
H     0.846000000     3.369000000    -7.493000000
H     0.007000000     4.619000000    -7.649000000
O    -5.834000000    -0.374000000    -7.715000000
H    -6.419000000    -0.739000000    -7.051000000
H    -6.181000000    -0.701000000    -8.545000000
O    -4.934000000     6.893000000    -5.007000000
H    -4.206000000     7.346000000    -4.581000000
H    -5.168000000     6.192000000    -4.399000000
O     0.098000000     1.562000000    -6.904000000
H    -0.026000000     1.371000000    -5.974000000
H    -0.759000000     1.864000000    -7.204000000
O    -3.456000000     5.907000000    -1.859000000
H    -3.411000000     5.418000000    -1.038000000
H    -3.928000000     5.327000000    -2.458000000
O    -5.372000000     2.591000000    -4.271000000
H    -4.625000000     2.049000000    -4.018000000
H    -5.306000000     2.660000000    -5.223000000
O    -4.590000000    -0.717000000    -5.052000000
H    -5.498000000    -0.419000000    -4.990000000
H    -4.163000000    -0.349000000    -4.279000000
O    -2.069000000    -0.556000000    -9.399000000
H    -2.552000000    -1.382000000    -9.417000000
H    -2.164000000    -0.242000000    -8.500000000
O     0.784000000    -2.121000000    -8.953000000
H     0.407000000    -1.243000000    -9.011000000
H     0.077000000    -2.662000000    -8.600000000
O    -0.774000000     7.535000000    -4.602000000
H     0.089000000     7.738000000    -4.961000000
H    -0.904000000     6.608000000    -4.801000000
O    -7.058000000     0.460000000    -4.477000000
H    -6.437000000     1.159000000    -4.273000000
H    -7.909000000     0.898000000    -4.509000000
O    -2.370000000    -0.486000000    -6.546000000
H    -1.671000000     0.034000000    -6.149000000
H    -3.115000000    -0.378000000    -5.955000000
O    -2.752000000     5.289000000    -8.947000000
H    -3.476000000     5.490000000    -8.354000000
H    -2.866000000     4.363000000    -9.160000000
O    -3.754000000    -2.947000000    -6.874000000
H    -3.447000000    -2.052000000    -6.730000000
H    -4.589000000    -2.992000000    -6.406000000
O    -2.386000000     2.875000000    -6.755000000
H    -2.077000000     2.430000000    -5.966000000
H    -3.258000000     2.512000000    -6.908000000
O    -5.716000000     4.951000000    -3.069000000
H    -5.651000000     4.073000000    -3.444000000
H    -6.572000000     4.966000000    -2.641000000
O    -0.557000000     4.834000000    -5.441000000
H    -1.334000000     4.365000000    -5.744000000
H     0.091000000     4.147000000    -5.281000000
O    -5.081000000     2.148000000    -7.043000000
H    -5.611000000     2.618000000    -7.687000000
H    -5.310000000     1.228000000    -7.169000000
