218
-1461.76706
C    -3.920000000    -3.356000000     0.413000000
H    -4.350000000    -3.432000000    -0.582000000
C    -3.602000000    -2.112000000     1.017000000
C    -2.876000000    -2.192000000     2.217000000
H    -2.530000000    -1.253000000     2.641000000
C    -4.060000000    -0.822000000     0.358000000
O    -4.797000000    -1.171000000    -0.834000000
H    -3.186000000    -0.269000000    -0.015000000
O    -4.774000000     0.122000000     1.216000000
C    -4.420000000     1.462000000     1.199000000
C    -3.500000000     1.878000000     2.216000000
H    -3.418000000     1.202000000     3.063000000
C    -2.732000000     2.989000000     2.059000000
O    -1.975000000     3.463000000     3.123000000
C    -2.909000000     3.795000000     0.899000000
C    -2.192000000     5.110000000     0.824000000
H    -2.596000000     5.817000000     0.095000000
C    -0.774000000     4.935000000     0.384000000
C    -0.479000000     4.970000000    -0.995000000
H    -1.319000000     5.115000000    -1.669000000
H    -2.340000000     5.586000000     1.796000000
C    -3.811000000     3.410000000    -0.139000000
H    -3.996000000     4.066000000    -0.986000000
C    -4.496000000     2.239000000    -0.018000000
C    -5.254000000     1.586000000    -1.139000000
H    -5.864000000     2.192000000    -1.812000000
H    -6.024000000     0.996000000    -0.636000000
C    -4.445000000     0.722000000    -2.127000000
C    -3.783000000     1.300000000    -3.204000000
H    -3.919000000     2.364000000    -3.384000000
C    -4.304000000    -0.639000000    -1.945000000
C    -3.417000000    -1.338000000    -2.723000000
H    -3.250000000    -2.391000000    -2.508000000
C    -2.739000000    -0.752000000    -3.730000000
O    -1.811000000    -1.559000000    -4.347000000
C    -0.483000000    -1.393000000    -3.846000000
C     0.114000000    -2.792000000    -3.518000000
C     1.477000000    -2.847000000    -3.173000000
H     1.960000000    -1.873000000    -3.176000000
C    -0.706000000    -3.923000000    -3.330000000
H    -1.768000000    -3.967000000    -3.561000000
O     0.333000000    -0.642000000    -4.818000000
H    -0.523000000    -0.883000000    -2.873000000
C    -2.892000000     0.567000000    -4.001000000
C    -2.006000000     1.204000000    -5.022000000
H    -2.539000000     2.045000000    -5.471000000
H    -1.967000000     0.589000000    -5.923000000
C    -0.562000000     1.585000000    -4.583000000
C    -0.308000000     2.919000000    -4.164000000
H    -1.084000000     3.680000000    -4.166000000
C     0.523000000     0.704000000    -4.553000000
C     1.809000000     1.137000000    -4.212000000
H     2.617000000     0.412000000    -4.148000000
C     1.971000000     2.407000000    -3.617000000
O     3.160000000     2.630000000    -2.948000000
C     3.160000000     2.656000000    -1.484000000
C     4.356000000     1.868000000    -0.947000000
C     4.946000000     0.821000000    -1.660000000
H     4.594000000     0.635000000    -2.672000000
C     4.769000000     2.088000000     0.346000000
H     4.316000000     2.906000000     0.900000000
O     3.145000000     4.081000000    -1.031000000
H     2.247000000     2.087000000    -1.250000000
C     0.939000000     3.340000000    -3.593000000
C     1.101000000     4.723000000    -2.980000000
H     0.578000000     5.531000000    -3.496000000
H     2.169000000     4.929000000    -3.075000000
C     0.816000000     4.730000000    -1.470000000
C     1.845000000     4.479000000    -0.548000000
C     1.539000000     4.419000000     0.814000000
H     2.264000000     3.991000000     1.501000000
C     0.237000000     4.652000000     1.219000000
O     0.076000000     4.484000000     2.604000000
C    -0.583000000     3.265000000     3.042000000
H    -0.340000000     2.523000000     2.267000000
C    -0.012000000     2.668000000     4.338000000
C    -0.729000000     1.754000000     5.142000000
H    -1.805000000     1.709000000     4.995000000
C     1.311000000     2.916000000     4.730000000
H     1.801000000     3.701000000     4.160000000
C     1.922000000     2.231000000     5.781000000
O     3.244000000     2.529000000     6.021000000
C     1.274000000     1.268000000     6.487000000
H     1.727000000     0.599000000     7.213000000
C    -0.070000000     1.023000000     6.147000000
O    -0.717000000     0.132000000     6.903000000
C    -1.633000000    -0.850000000     6.516000000
C    -1.308000000    -1.534000000     5.363000000
H    -0.498000000    -1.156000000     4.744000000
C    -2.745000000    -1.184000000     7.266000000
H    -3.040000000    -0.561000000     8.107000000
C    -3.552000000    -2.260000000     6.871000000
H    -4.480000000    -2.422000000     7.413000000
C    -3.140000000    -3.080000000     5.818000000
H    -3.772000000    -3.929000000     5.572000000
C    -2.075000000    -2.612000000     5.055000000
O    -1.719000000    -3.368000000     3.914000000
C    -2.611000000    -3.423000000     2.822000000
C    -3.032000000    -4.644000000     2.231000000
H    -2.928000000    -5.616000000     2.705000000
C    -3.592000000    -4.541000000     1.007000000
O    -4.061000000    -5.645000000     0.407000000
C    -3.633000000    -6.149000000    -0.804000000
C    -2.346000000    -5.891000000    -1.350000000
H    -1.556000000    -5.388000000    -0.798000000
C    -4.605000000    -6.714000000    -1.610000000
H    -5.621000000    -6.819000000    -1.238000000
C    -4.293000000    -7.170000000    -2.914000000
H    -5.095000000    -7.539000000    -3.548000000
C    -2.936000000    -7.146000000    -3.293000000
H    -2.636000000    -7.409000000    -4.304000000
C    -2.007000000    -6.462000000    -2.540000000
O    -0.770000000    -6.382000000    -3.064000000
C    -0.098000000    -5.160000000    -3.082000000
C     1.272000000    -5.171000000    -2.821000000
H     1.818000000    -6.096000000    -2.654000000
C     2.024000000    -4.005000000    -2.707000000
O     3.351000000    -4.152000000    -2.351000000
C     4.330000000    -3.422000000    -2.967000000
C     4.970000000    -2.532000000    -2.197000000
H     4.685000000    -2.363000000    -1.161000000
C     4.673000000    -3.606000000    -4.289000000
H     4.086000000    -4.309000000    -4.874000000
C     5.685000000    -2.811000000    -4.875000000
H     6.016000000    -2.876000000    -5.909000000
C     6.376000000    -1.935000000    -4.049000000
H     7.165000000    -1.273000000    -4.398000000
C     6.092000000    -1.853000000    -2.675000000
O     6.610000000    -0.843000000    -1.883000000
C     5.976000000     0.053000000    -1.138000000
C     6.349000000     0.266000000     0.215000000
H     7.125000000    -0.409000000     0.567000000
C     5.718000000     1.182000000     0.983000000
O     6.125000000     1.352000000     2.322000000
C     5.546000000     2.319000000     3.134000000
C     5.807000000     3.682000000     3.004000000
H     6.596000000     3.898000000     2.287000000
C     5.223000000     4.629000000     3.819000000
H     5.484000000     5.679000000     3.714000000
C     4.316000000     4.311000000     4.850000000
H     3.924000000     5.140000000     5.434000000
C     4.131000000     2.965000000     5.037000000
C     4.580000000     1.978000000     4.104000000
H     4.338000000     0.919000000     4.157000000
C     0.798000000    -2.516000000     0.186000000
H     0.618000000    -3.496000000    -0.248000000
C     0.060000000    -1.426000000    -0.341000000
H    -0.709000000    -1.539000000    -1.100000000
C     0.252000000    -0.162000000     0.092000000
C    -0.545000000     0.966000000    -0.288000000
H    -0.880000000     0.972000000    -1.328000000
H    -1.456000000     1.088000000     0.301000000
H     0.055000000     1.878000000    -0.285000000
C     1.151000000     0.109000000     1.157000000
H     1.396000000     1.122000000     1.465000000
C     1.988000000    -0.912000000     1.625000000
H     2.733000000    -0.684000000     2.383000000
C     1.774000000    -2.213000000     1.153000000
C     2.468000000    -3.437000000     1.647000000
O     2.922000000    -3.446000000     2.756000000
O     2.261000000    -4.496000000     1.067000000
O     1.267000000    -8.257000000     4.244000000
H     1.723000000    -7.745000000     4.911000000
H     0.714000000    -7.621000000     3.789000000
O    -0.077000000    -5.019000000     6.691000000
H     0.393000000    -4.469000000     6.064000000
H    -0.582000000    -4.402000000     7.220000000
O     7.232000000    -0.630000000     4.438000000
H     6.859000000    -0.904000000     3.600000000
H     7.110000000    -1.385000000     5.013000000
O     6.372000000    -6.892000000     0.305000000
H     5.589000000    -6.341000000     0.308000000
H     7.060000000    -6.331000000     0.663000000
O     3.386000000    -8.297000000     2.241000000
H     3.505000000    -8.417000000     1.299000000
H     2.825000000    -9.025000000     2.506000000
O     5.198000000    -4.556000000     5.795000000
H     4.542000000    -4.923000000     5.203000000
H     4.785000000    -3.770000000     6.154000000
O     6.725000000    -6.766000000     5.126000000
H     6.138000000    -6.013000000     5.198000000
H     7.571000000    -6.389000000     4.886000000
O     1.209000000    -3.625000000     4.766000000
H     1.107000000    -2.689000000     4.943000000
H     1.788000000    -3.663000000     4.005000000
O     3.472000000    -8.657000000    -0.357000000
H     3.664000000    -7.764000000    -0.642000000
H     3.835000000    -9.212000000    -1.047000000
O     7.013000000    -3.626000000     0.486000000
H     7.198000000    -3.362000000    -0.416000000
H     7.734000000    -4.211000000     0.716000000
O    -0.058000000    -5.877000000     3.091000000
H    -0.023000000    -4.942000000     3.294000000
H     0.198000000    -5.932000000     2.170000000
O     5.375000000    -2.106000000     2.802000000
H     4.523000000    -2.513000000     2.959000000
H     5.832000000    -2.720000000     2.227000000
O     4.504000000    -1.358000000     5.883000000
H     4.926000000    -1.318000000     5.025000000
H     5.226000000    -1.295000000     6.509000000
O     2.344000000    -6.537000000     6.020000000
H     1.934000000    -5.737000000     6.349000000
H     3.005000000    -6.229000000     5.400000000
O     3.897000000    -5.935000000     3.457000000
H     3.724000000    -6.686000000     2.888000000
H     3.297000000    -5.257000000     3.147000000
O     0.551000000    -6.426000000     0.488000000
H     1.186000000    -7.071000000     0.801000000
H     1.036000000    -5.601000000     0.475000000
O    -1.256000000    -7.213000000     5.160000000
H    -1.146000000    -6.744000000     4.333000000
H    -0.731000000    -6.717000000     5.789000000
O     1.935000000    -1.779000000     6.609000000
H     2.795000000    -1.729000000     6.193000000
H     2.100000000    -1.568000000     7.528000000
O     3.789000000    -5.877000000    -0.376000000
H     3.878000000    -5.139000000    -0.980000000
H     3.249000000    -5.538000000     0.338000000
