218
-1448.30784
C    -4.466000000    -2.777000000    -1.901000000
H    -5.068000000    -2.889000000    -1.003000000
C    -3.069000000    -2.971000000    -1.961000000
C    -2.363000000    -2.746000000    -3.175000000
H    -1.285000000    -2.874000000    -3.238000000
C    -2.273000000    -3.384000000    -0.743000000
O    -3.158000000    -3.829000000     0.301000000
H    -1.686000000    -2.558000000    -0.315000000
O    -1.422000000    -4.494000000    -1.012000000
C    -0.143000000    -4.461000000    -0.560000000
C     0.901000000    -4.123000000    -1.486000000
H     0.871000000    -4.065000000    -2.571000000
C     2.199000000    -3.962000000    -0.994000000
O     3.175000000    -3.445000000    -1.778000000
C     2.429000000    -4.110000000     0.399000000
C     3.786000000    -3.765000000     1.040000000
H     4.041000000    -4.431000000     1.866000000
C     3.929000000    -2.308000000     1.366000000
C     3.620000000    -1.924000000     2.675000000
H     3.167000000    -2.586000000     3.409000000
H     4.474000000    -3.899000000     0.203000000
C     1.449000000    -4.665000000     1.239000000
H     1.617000000    -4.981000000     2.265000000
C     0.128000000    -4.778000000     0.766000000
C    -0.944000000    -5.256000000     1.743000000
H    -0.498000000    -5.767000000     2.599000000
H    -1.526000000    -5.995000000     1.189000000
C    -1.754000000    -4.091000000     2.297000000
C    -1.319000000    -3.453000000     3.434000000
H    -0.502000000    -3.923000000     3.977000000
C    -2.823000000    -3.469000000     1.566000000
C    -3.408000000    -2.235000000     2.001000000
H    -4.158000000    -1.714000000     1.411000000
C    -2.918000000    -1.650000000     3.109000000
O    -3.532000000    -0.456000000     3.458000000
C    -2.773000000     0.778000000     3.154000000
C    -3.607000000     1.843000000     2.517000000
C    -3.154000000     3.162000000     2.213000000
H    -2.259000000     3.589000000     2.660000000
C    -4.749000000     1.415000000     1.902000000
H    -5.163000000     0.438000000     2.136000000
O    -2.026000000     1.180000000     4.337000000
H    -2.071000000     0.581000000     2.331000000
C    -1.913000000    -2.253000000     3.916000000
C    -1.381000000    -1.547000000     5.126000000
H    -1.025000000    -2.287000000     5.847000000
H    -2.069000000    -0.899000000     5.673000000
C    -0.316000000    -0.538000000     4.620000000
C     1.038000000    -0.890000000     4.722000000
H     1.354000000    -1.916000000     4.893000000
C    -0.719000000     0.812000000     4.266000000
C     0.230000000     1.715000000     4.009000000
H    -0.077000000     2.738000000     3.807000000
C     1.558000000     1.384000000     4.031000000
O     2.379000000     2.378000000     3.493000000
C     2.916000000     2.259000000     2.176000000
C     2.894000000     3.646000000     1.583000000
C     1.877000000     4.573000000     1.878000000
H     1.104000000     4.345000000     2.607000000
C     3.858000000     3.909000000     0.565000000
H     4.687000000     3.246000000     0.333000000
O     4.348000000     1.747000000     2.311000000
H     2.308000000     1.610000000     1.528000000
C     1.987000000     0.091000000     4.410000000
C     3.421000000    -0.257000000     4.429000000
H     3.608000000    -1.103000000     5.094000000
H     3.943000000     0.656000000     4.722000000
C     3.826000000    -0.593000000     3.032000000
C     4.341000000     0.364000000     2.066000000
C     4.635000000    -0.032000000     0.747000000
H     5.042000000     0.656000000     0.010000000
C     4.420000000    -1.368000000     0.427000000
O     4.574000000    -1.704000000    -0.885000000
C     3.425000000    -2.000000000    -1.661000000
H     2.500000000    -1.590000000    -1.230000000
C     3.534000000    -1.367000000    -3.043000000
C     3.132000000    -2.016000000    -4.199000000
H     2.781000000    -3.044000000    -4.157000000
C     3.789000000    -0.011000000    -3.064000000
H     3.980000000     0.457000000    -2.102000000
C     3.890000000     0.687000000    -4.256000000
O     4.175000000     2.039000000    -4.299000000
C     3.517000000    -0.036000000    -5.406000000
H     3.364000000     0.474000000    -6.354000000
C     3.043000000    -1.296000000    -5.358000000
O     2.463000000    -1.933000000    -6.417000000
C     1.293000000    -2.597000000    -6.350000000
C     0.081000000    -1.902000000    -6.102000000
H     0.172000000    -0.820000000    -6.040000000
C     1.284000000    -3.989000000    -6.355000000
H     2.164000000    -4.624000000    -6.416000000
C     0.108000000    -4.683000000    -6.226000000
H     0.122000000    -5.769000000    -6.266000000
C    -1.038000000    -4.031000000    -5.852000000
H    -1.854000000    -4.684000000    -5.556000000
C    -1.118000000    -2.651000000    -5.786000000
O    -2.273000000    -2.023000000    -5.489000000
C    -3.011000000    -2.258000000    -4.346000000
C    -4.397000000    -2.086000000    -4.232000000
H    -4.862000000    -1.605000000    -5.089000000
C    -5.093000000    -2.232000000    -3.037000000
O    -6.361000000    -1.787000000    -2.892000000
C    -6.805000000    -1.307000000    -1.673000000
C    -6.458000000     0.014000000    -1.320000000
H    -6.035000000     0.660000000    -2.086000000
C    -7.509000000    -2.115000000    -0.848000000
H    -7.775000000    -3.129000000    -1.135000000
C    -7.919000000    -1.629000000     0.358000000
H    -8.653000000    -2.175000000     0.944000000
C    -7.574000000    -0.320000000     0.756000000
H    -7.870000000     0.106000000     1.711000000
C    -6.757000000     0.439000000    -0.050000000
O    -6.529000000     1.686000000     0.283000000
C    -5.428000000     2.167000000     0.961000000
C    -4.932000000     3.409000000     0.615000000
H    -5.526000000     4.041000000    -0.039000000
C    -3.799000000     3.937000000     1.272000000
O    -3.445000000     5.269000000     0.954000000
C    -2.562000000     5.895000000     1.768000000
C    -1.223000000     5.881000000     1.362000000
H    -0.931000000     5.347000000     0.462000000
C    -3.001000000     6.510000000     2.872000000
H    -4.045000000     6.490000000     3.176000000
C    -2.061000000     7.202000000     3.646000000
H    -2.432000000     7.691000000     4.543000000
C    -0.722000000     7.286000000     3.298000000
H    -0.030000000     7.864000000     3.905000000
C    -0.284000000     6.627000000     2.161000000
O     1.049000000     6.739000000     1.688000000
C     1.773000000     5.735000000     1.161000000
C     2.673000000     6.021000000     0.142000000
H     2.600000000     6.940000000    -0.434000000
C     3.724000000     5.120000000    -0.135000000
O     4.636000000     5.483000000    -1.111000000
C     5.287000000     4.536000000    -1.899000000
C     6.631000000     4.212000000    -1.796000000
H     7.239000000     4.731000000    -1.059000000
C     7.139000000     3.133000000    -2.514000000
H     8.169000000     2.797000000    -2.426000000
C     6.356000000     2.349000000    -3.271000000
H     6.674000000     1.468000000    -3.823000000
C     5.058000000     2.769000000    -3.533000000
C     4.501000000     3.803000000    -2.793000000
H     3.423000000     3.936000000    -2.825000000
C     0.015000000     1.998000000    -2.071000000
H     0.626000000     2.512000000    -2.808000000
C     0.569000000     1.066000000    -1.171000000
H     1.647000000     0.950000000    -1.099000000
C    -0.263000000     0.386000000    -0.289000000
C     0.295000000    -0.621000000     0.772000000
H     1.240000000    -1.043000000     0.423000000
H     0.600000000    -0.032000000     1.639000000
H    -0.522000000    -1.298000000     1.031000000
C    -1.639000000     0.555000000    -0.334000000
H    -2.213000000    -0.016000000     0.391000000
C    -2.182000000     1.431000000    -1.257000000
H    -3.260000000     1.562000000    -1.216000000
C    -1.366000000     2.134000000    -2.129000000
C    -2.031000000     3.060000000    -3.086000000
O    -3.203000000     2.949000000    -3.315000000
O    -1.445000000     3.614000000    -3.914000000
O    -4.940000000     1.474000000    -4.784000000
H    -4.414000000     2.078000000    -4.260000000
H    -5.743000000     1.355000000    -4.278000000
O    -5.754000000     4.239000000    -3.026000000
H    -4.973000000     3.718000000    -3.215000000
H    -6.405000000     3.599000000    -2.739000000
O    -4.444000000     3.329000000    -7.203000000
H    -5.097000000     2.897000000    -6.652000000
H    -4.241000000     2.686000000    -7.883000000
O    -3.812000000     7.869000000    -0.496000000
H    -2.858000000     7.811000000    -0.542000000
H    -4.108000000     7.667000000    -1.384000000
O     1.118000000     7.703000000    -4.369000000
H     1.646000000     8.313000000    -3.854000000
H     1.759000000     7.178000000    -4.848000000
O    -2.005000000     1.348000000    -8.128000000
H    -1.190000000     1.470000000    -8.615000000
H    -1.787000000     1.598000000    -7.230000000
O    -2.308000000     4.858000000    -8.506000000
H    -2.732000000     4.173000000    -7.988000000
H    -2.958000000     5.095000000    -9.167000000
O    -3.224000000     5.100000000    -5.305000000
H    -3.706000000     4.507000000    -5.882000000
H    -2.841000000     4.528000000    -4.640000000
O    -2.454000000     9.007000000    -3.872000000
H    -3.354000000     8.905000000    -4.181000000
H    -1.937000000     8.443000000    -4.447000000
O     0.149000000     3.320000000    -6.068000000
H    -0.228000000     3.268000000    -5.189000000
H     0.147000000     2.416000000    -6.383000000
O    -6.558000000     5.532000000    -5.397000000
H    -6.234000000     5.497000000    -4.497000000
H    -7.310000000     6.123000000    -5.359000000
O    -1.489000000     7.146000000    -5.600000000
H    -0.711000000     6.844000000    -5.132000000
H    -2.134000000     6.452000000    -5.465000000
O     0.240000000     5.937000000    -2.238000000
H    -0.134000000     5.206000000    -2.729000000
H     0.674000000     6.475000000    -2.900000000
O    -6.586000000     0.521000000    -6.871000000
H    -6.007000000     0.834000000    -6.176000000
H    -6.034000000     0.503000000    -7.653000000
O    -1.756000000     1.018000000    -5.469000000
H    -1.984000000     0.111000000    -5.262000000
H    -2.451000000     1.538000000    -5.065000000
O    -4.616000000     6.807000000    -3.083000000
H    -3.817000000     6.469000000    -3.486000000
H    -5.120000000     6.026000000    -2.856000000
O    -1.289000000     7.539000000    -0.912000000
H    -0.870000000     6.744000000    -1.243000000
H    -0.983000000     8.232000000    -1.497000000
O    -4.819000000     6.969000000    -6.901000000
H    -3.971000000     6.543000000    -6.773000000
H    -5.449000000     6.376000000    -6.490000000
O     0.268000000     5.317000000    -8.038000000
H    -0.673000000     5.170000000    -8.134000000
H     0.489000000     4.916000000    -7.197000000
