218
-1486.75586
C    -3.824000000    -3.330000000    -0.264000000
H    -4.039000000    -3.150000000     0.786000000
C    -2.559000000    -3.676000000    -0.756000000
C    -2.454000000    -3.987000000    -2.133000000
H    -1.488000000    -4.303000000    -2.520000000
C    -1.405000000    -3.840000000     0.231000000
O    -1.763000000    -4.260000000     1.597000000
H    -0.972000000    -2.829000000     0.248000000
O    -0.488000000    -4.843000000    -0.331000000
C     0.833000000    -4.546000000    -0.345000000
C     1.360000000    -4.041000000    -1.517000000
H     0.842000000    -3.945000000    -2.467000000
C     2.657000000    -3.510000000    -1.503000000
O     3.148000000    -2.921000000    -2.697000000
C     3.450000000    -3.495000000    -0.333000000
C     4.830000000    -2.911000000    -0.271000000
H     5.345000000    -3.406000000     0.555000000
C     4.687000000    -1.459000000     0.006000000
C     4.712000000    -0.973000000     1.306000000
H     4.835000000    -1.661000000     2.138000000
H     5.484000000    -3.091000000    -1.127000000
C     2.897000000    -4.017000000     0.849000000
H     3.437000000    -4.054000000     1.792000000
C     1.567000000    -4.501000000     0.872000000
C     0.962000000    -4.941000000     2.251000000
H     1.822000000    -5.195000000     2.875000000
H     0.356000000    -5.839000000     2.115000000
C     0.137000000    -3.855000000     2.933000000
C     0.729000000    -3.145000000     4.020000000
H     1.713000000    -3.440000000     4.374000000
C    -1.172000000    -3.565000000     2.597000000
C    -1.873000000    -2.546000000     3.185000000
H    -2.924000000    -2.428000000     2.938000000
C    -1.241000000    -1.786000000     4.173000000
O    -1.911000000    -0.654000000     4.610000000
C    -1.612000000     0.523000000     3.917000000
C    -2.796000000     1.360000000     3.533000000
C    -2.673000000     2.722000000     3.308000000
H    -1.699000000     3.185000000     3.441000000
C    -4.017000000     0.728000000     3.212000000
H    -4.071000000    -0.355000000     3.281000000
O    -0.728000000     1.217000000     4.856000000
H    -1.087000000     0.275000000     2.983000000
C     0.077000000    -2.059000000     4.558000000
C     0.815000000    -1.147000000     5.543000000
H     1.649000000    -1.634000000     6.055000000
H     0.227000000    -0.743000000     6.370000000
C     1.395000000     0.039000000     4.785000000
C     2.701000000    -0.034000000     4.292000000
H     3.172000000    -1.013000000     4.314000000
C     0.621000000     1.144000000     4.565000000
C     1.187000000     2.275000000     3.960000000
H     0.600000000     3.175000000     3.799000000
C     2.505000000     2.231000000     3.487000000
O     2.974000000     3.276000000     2.734000000
C     2.854000000     3.035000000     1.307000000
C     2.169000000     4.182000000     0.570000000
C     1.450000000     5.212000000     1.272000000
H     1.324000000     5.208000000     2.352000000
C     2.247000000     4.191000000    -0.840000000
H     2.832000000     3.422000000    -1.338000000
O     4.105000000     2.652000000     0.671000000
H     2.114000000     2.239000000     1.132000000
C     3.241000000     1.060000000     3.636000000
C     4.628000000     0.902000000     2.952000000
H     5.134000000     0.184000000     3.602000000
H     5.255000000     1.796000000     2.987000000
C     4.479000000     0.382000000     1.542000000
C     4.189000000     1.292000000     0.490000000
C     4.205000000     0.779000000    -0.799000000
H     3.921000000     1.432000000    -1.620000000
C     4.387000000    -0.581000000    -1.036000000
O     4.264000000    -0.866000000    -2.379000000
C     2.980000000    -1.467000000    -2.747000000
H     2.163000000    -1.120000000    -2.098000000
C     2.522000000    -0.967000000    -4.142000000
C     1.614000000    -1.808000000    -4.880000000
H     1.252000000    -2.713000000    -4.399000000
C     2.863000000     0.215000000    -4.755000000
H     3.615000000     0.874000000    -4.329000000
C     2.246000000     0.674000000    -5.908000000
O     2.451000000     1.961000000    -6.338000000
C     1.261000000    -0.111000000    -6.533000000
H     0.843000000     0.155000000    -7.501000000
C     0.941000000    -1.387000000    -6.037000000
O     0.040000000    -2.116000000    -6.789000000
C    -0.600000000    -3.233000000    -6.322000000
C    -1.692000000    -3.108000000    -5.458000000
H    -2.020000000    -2.113000000    -5.170000000
C    -0.179000000    -4.375000000    -6.871000000
H     0.725000000    -4.413000000    -7.472000000
C    -0.763000000    -5.548000000    -6.425000000
H    -0.487000000    -6.512000000    -6.843000000
C    -1.915000000    -5.489000000    -5.636000000
H    -2.504000000    -6.394000000    -5.509000000
C    -2.306000000    -4.300000000    -5.017000000
O    -3.483000000    -4.286000000    -4.217000000
C    -3.572000000    -3.785000000    -2.991000000
C    -4.803000000    -3.297000000    -2.480000000
H    -5.615000000    -3.247000000    -3.201000000
C    -4.900000000    -3.085000000    -1.144000000
O    -6.127000000    -2.717000000    -0.726000000
C    -6.395000000    -2.258000000     0.545000000
C    -6.268000000    -0.880000000     0.834000000
H    -6.034000000    -0.170000000     0.045000000
C    -6.673000000    -3.212000000     1.511000000
H    -6.651000000    -4.276000000     1.290000000
C    -6.753000000    -2.795000000     2.806000000
H    -6.842000000    -3.475000000     3.649000000
C    -6.618000000    -1.430000000     3.098000000
H    -6.786000000    -1.091000000     4.117000000
C    -6.411000000    -0.468000000     2.129000000
O    -6.299000000     0.861000000     2.438000000
C    -5.105000000     1.450000000     2.743000000
C    -4.966000000     2.843000000     2.498000000
H    -5.743000000     3.433000000     2.019000000
C    -3.743000000     3.445000000     2.824000000
O    -3.712000000     4.773000000     2.421000000
C    -2.598000000     5.554000000     2.718000000
C    -1.546000000     5.767000000     1.814000000
H    -1.565000000     5.318000000     0.825000000
C    -2.437000000     5.998000000     4.016000000
H    -3.162000000     5.656000000     4.750000000
C    -1.528000000     6.929000000     4.399000000
H    -1.520000000     7.368000000     5.393000000
C    -0.574000000     7.378000000     3.463000000
H     0.220000000     8.119000000     3.518000000
C    -0.591000000     6.736000000     2.213000000
O     0.225000000     7.248000000     1.236000000
C     0.929000000     6.297000000     0.525000000
C     0.778000000     6.189000000    -0.845000000
H     0.265000000     6.967000000    -1.404000000
C     1.468000000     5.139000000    -1.524000000
O     1.206000000     5.003000000    -2.848000000
C     2.124000000     4.473000000    -3.730000000
C     3.161000000     5.324000000    -4.072000000
H     3.380000000     6.167000000    -3.422000000
C     3.954000000     5.086000000    -5.202000000
H     4.741000000     5.735000000    -5.577000000
C     3.733000000     3.987000000    -5.940000000
H     4.430000000     3.753000000    -6.741000000
C     2.755000000     3.090000000    -5.587000000
C     1.856000000     3.349000000    -4.451000000
H     0.985000000     2.727000000    -4.261000000
C    -0.914000000     1.984000000    -1.257000000
H    -0.695000000     2.801000000    -1.940000000
C    -0.005000000     1.048000000    -0.763000000
H     1.026000000     0.982000000    -1.101000000
C    -0.335000000     0.102000000     0.175000000
C     0.816000000    -0.821000000     0.611000000
H     1.792000000    -0.342000000     0.709000000
H     0.586000000    -1.064000000     1.651000000
H     0.784000000    -1.740000000     0.022000000
C    -1.686000000    -0.102000000     0.557000000
H    -1.972000000    -0.908000000     1.228000000
C    -2.633000000     0.719000000    -0.086000000
H    -3.626000000     0.576000000     0.334000000
C    -2.259000000     1.864000000    -0.880000000
C    -3.317000000     2.769000000    -1.494000000
O    -4.491000000     2.551000000    -1.612000000
O    -2.983000000     3.895000000    -1.886000000
O    -2.387000000     8.268000000    -4.698000000
H    -2.297000000     7.705000000    -3.929000000
H    -3.000000000     7.801000000    -5.266000000
O    -0.988000000     1.444000000    -4.907000000
H    -1.516000000     0.963000000    -5.543000000
H    -0.488000000     0.768000000    -4.450000000
O    -2.368000000    -0.699000000    -3.027000000
H    -2.404000000     0.251000000    -2.914000000
H    -2.416000000    -1.047000000    -2.137000000
O    -5.171000000    -1.529000000    -5.531000000
H    -5.061000000    -0.703000000    -5.059000000
H    -6.027000000    -1.852000000    -5.252000000
O    -4.555000000     5.576000000    -0.333000000
H    -4.320000000     5.259000000     0.539000000
H    -4.059000000     5.018000000    -0.932000000
O    -5.086000000     8.252000000    -2.337000000
H    -5.743000000     7.653000000    -1.982000000
H    -5.482000000     8.593000000    -3.139000000
O    -1.452000000     9.257000000    -0.691000000
H    -2.271000000     9.453000000    -0.237000000
H    -1.558000000     8.358000000    -1.000000000
O    -1.923000000     4.270000000    -4.369000000
H    -2.426000000     4.338000000    -3.558000000
H    -1.651000000     3.353000000    -4.406000000
O    -0.392000000     4.889000000    -6.727000000
H    -0.041000000     4.768000000    -5.844000000
H    -1.168000000     4.330000000    -6.755000000
O    -6.877000000     6.870000000    -0.382000000
H    -7.033000000     6.857000000     0.562000000
H    -6.031000000     6.437000000    -0.492000000
O    -3.968000000     6.669000000    -6.160000000
H    -4.069000000     5.736000000    -5.969000000
H    -4.780000000     6.910000000    -6.606000000
O    -7.776000000    -0.623000000    -3.404000000
H    -7.063000000     0.014000000    -3.429000000
H    -8.252000000    -0.419000000    -2.600000000
O    -2.314000000     7.127000000    -2.127000000
H    -3.215000000     7.331000000    -1.878000000
H    -2.232000000     6.184000000    -1.980000000
O    -8.374000000     3.146000000     2.037000000
H    -7.687000000     2.779000000     1.482000000
H    -8.500000000     4.036000000     1.706000000
O    -5.858000000     1.230000000    -3.581000000
H    -5.367000000     1.635000000    -2.865000000
H    -5.941000000     1.924000000    -4.235000000
O    -5.514000000     4.407000000    -3.352000000
H    -4.828000000     4.779000000    -3.907000000
H    -5.042000000     3.874000000    -2.713000000
O    -6.694000000     3.326000000    -0.403000000
H    -7.377000000     3.120000000    -1.041000000
H    -5.874000000     3.127000000    -0.855000000
O    -3.814000000     4.118000000    -6.224000000
H    -3.074000000     3.836000000    -5.686000000
H    -3.563000000     3.885000000    -7.118000000
O    -8.296000000     3.877000000    -3.800000000
H    -7.343000000     3.918000000    -3.714000000
H    -8.626000000     4.388000000    -3.061000000
