218
-1461.55009
C    -3.735000000    -3.511000000    -0.255000000
H    -3.964000000    -3.245000000     0.773000000
C    -2.466000000    -3.929000000    -0.639000000
C    -2.234000000    -4.297000000    -1.952000000
H    -1.265000000    -4.628000000    -2.317000000
C    -1.246000000    -4.041000000     0.399000000
O    -1.720000000    -4.308000000     1.708000000
H    -0.674000000    -3.109000000     0.515000000
O    -0.234000000    -4.906000000    -0.022000000
C     1.119000000    -4.593000000     0.211000000
C     1.791000000    -4.242000000    -0.917000000
H     1.250000000    -4.298000000    -1.858000000
C     3.023000000    -3.647000000    -0.791000000
O     3.507000000    -3.149000000    -1.913000000
C     3.657000000    -3.332000000     0.411000000
C     4.968000000    -2.556000000     0.604000000
H     5.374000000    -2.941000000     1.542000000
C     4.708000000    -1.013000000     0.531000000
C     4.745000000    -0.344000000     1.731000000
H     4.914000000    -0.930000000     2.631000000
H     5.666000000    -2.861000000    -0.179000000
C     2.945000000    -3.778000000     1.543000000
H     3.191000000    -3.370000000     2.520000000
C     1.678000000    -4.438000000     1.464000000
C     0.856000000    -4.800000000     2.709000000
H     1.582000000    -4.922000000     3.516000000
H     0.283000000    -5.695000000     2.459000000
C     0.015000000    -3.637000000     3.210000000
C     0.467000000    -2.675000000     4.177000000
H     1.516000000    -2.704000000     4.462000000
C    -1.315000000    -3.563000000     2.730000000
C    -2.099000000    -2.514000000     3.223000000
H    -3.058000000    -2.418000000     2.719000000
C    -1.709000000    -1.529000000     4.095000000
O    -2.460000000    -0.383000000     4.270000000
C    -2.128000000     0.841000000     3.548000000
C    -3.355000000     1.560000000     3.062000000
C    -3.239000000     2.907000000     2.513000000
H    -2.323000000     3.486000000     2.594000000
C    -4.554000000     0.833000000     2.876000000
H    -4.511000000    -0.243000000     3.020000000
O    -1.400000000     1.725000000     4.397000000
H    -1.600000000     0.586000000     2.618000000
C    -0.364000000    -1.596000000     4.507000000
C     0.212000000    -0.547000000     5.382000000
H     1.064000000    -0.864000000     5.987000000
H    -0.581000000    -0.154000000     6.021000000
C     0.769000000     0.654000000     4.534000000
C     2.129000000     0.599000000     4.197000000
H     2.694000000    -0.277000000     4.507000000
C    -0.038000000     1.740000000     4.238000000
C     0.579000000     2.821000000     3.591000000
H    -0.154000000     3.558000000     3.271000000
C     1.938000000     2.760000000     3.204000000
O     2.391000000     3.731000000     2.337000000
C     2.431000000     3.393000000     0.951000000
C     1.992000000     4.535000000     0.062000000
C     1.055000000     5.454000000     0.422000000
H     0.578000000     5.350000000     1.393000000
C     2.497000000     4.659000000    -1.248000000
H     3.242000000     3.974000000    -1.644000000
O     3.800000000     3.032000000     0.636000000
H     1.797000000     2.502000000     0.832000000
C     2.773000000     1.673000000     3.554000000
C     4.225000000     1.575000000     3.176000000
H     4.811000000     0.923000000     3.826000000
H     4.631000000     2.589000000     3.173000000
C     4.415000000     1.004000000     1.810000000
C     4.155000000     1.705000000     0.630000000
C     4.128000000     1.074000000    -0.630000000
H     3.945000000     1.583000000    -1.573000000
C     4.478000000    -0.316000000    -0.688000000
O     4.490000000    -0.922000000    -1.926000000
C     3.286000000    -1.744000000    -2.166000000
H     2.472000000    -1.418000000    -1.502000000
C     2.818000000    -1.359000000    -3.597000000
C     2.120000000    -2.316000000    -4.373000000
H     1.908000000    -3.287000000    -3.931000000
C     2.900000000    -0.079000000    -4.100000000
H     3.084000000     0.785000000    -3.467000000
C     2.516000000     0.237000000    -5.408000000
O     2.669000000     1.522000000    -5.865000000
C     1.907000000    -0.683000000    -6.199000000
H     1.504000000    -0.415000000    -7.172000000
C     1.644000000    -1.968000000    -5.676000000
O     1.020000000    -2.915000000    -6.455000000
C     0.201000000    -3.894000000    -5.969000000
C    -1.061000000    -3.665000000    -5.338000000
H    -1.338000000    -2.634000000    -5.134000000
C     0.629000000    -5.243000000    -6.146000000
H     1.532000000    -5.438000000    -6.720000000
C    -0.153000000    -6.258000000    -5.641000000
H     0.205000000    -7.283000000    -5.604000000
C    -1.383000000    -6.022000000    -5.016000000
H    -2.048000000    -6.817000000    -4.690000000
C    -1.785000000    -4.710000000    -4.873000000
O    -3.022000000    -4.571000000    -4.258000000
C    -3.229000000    -4.179000000    -2.942000000
C    -4.536000000    -3.865000000    -2.476000000
H    -5.326000000    -3.699000000    -3.204000000
C    -4.777000000    -3.530000000    -1.129000000
O    -5.945000000    -2.908000000    -0.845000000
C    -6.352000000    -2.400000000     0.370000000
C    -6.424000000    -1.024000000     0.565000000
H    -6.247000000    -0.315000000    -0.240000000
C    -6.840000000    -3.278000000     1.346000000
H    -6.920000000    -4.323000000     1.057000000
C    -7.249000000    -2.852000000     2.584000000
H    -7.615000000    -3.597000000     3.285000000
C    -7.161000000    -1.516000000     2.863000000
H    -7.561000000    -1.156000000     3.807000000
C    -6.764000000    -0.560000000     1.820000000
O    -6.846000000     0.856000000     2.040000000
C    -5.678000000     1.554000000     2.365000000
C    -5.652000000     2.908000000     2.022000000
H    -6.535000000     3.342000000     1.559000000
C    -4.413000000     3.568000000     1.997000000
O    -4.337000000     4.898000000     1.645000000
C    -3.213000000     5.673000000     1.801000000
C    -2.496000000     6.251000000     0.730000000
H    -2.856000000     6.136000000    -0.289000000
C    -2.911000000     6.068000000     3.128000000
H    -3.456000000     5.726000000     4.004000000
C    -1.732000000     6.654000000     3.377000000
H    -1.532000000     7.029000000     4.377000000
C    -0.919000000     7.101000000     2.339000000
H     0.015000000     7.613000000     2.555000000
C    -1.335000000     6.961000000     1.038000000
O    -0.435000000     7.295000000     0.034000000
C     0.671000000     6.548000000    -0.338000000
C     1.200000000     6.637000000    -1.636000000
H     0.817000000     7.370000000    -2.341000000
C     2.128000000     5.664000000    -2.102000000
O     2.569000000     5.735000000    -3.418000000
C     3.248000000     4.713000000    -4.075000000
C     4.627000000     4.699000000    -3.949000000
H     5.114000000     5.502000000    -3.401000000
C     5.371000000     3.597000000    -4.324000000
H     6.439000000     3.541000000    -4.131000000
C     4.696000000     2.541000000    -4.968000000
H     5.364000000     1.775000000    -5.354000000
C     3.333000000     2.545000000    -5.173000000
C     2.578000000     3.646000000    -4.720000000
H     1.500000000     3.559000000    -4.832000000
C    -0.341000000     2.006000000    -1.367000000
H     0.287000000     2.615000000    -2.012000000
C     0.352000000     0.953000000    -0.787000000
H     1.435000000     0.865000000    -0.800000000
C    -0.386000000     0.182000000     0.135000000
C     0.336000000    -0.807000000     1.048000000
H     0.955000000    -1.548000000     0.537000000
H     1.001000000    -0.210000000     1.676000000
H    -0.420000000    -1.361000000     1.608000000
C    -1.761000000     0.208000000     0.145000000
H    -2.360000000    -0.445000000     0.775000000
C    -2.427000000     1.186000000    -0.631000000
H    -3.508000000     1.134000000    -0.730000000
C    -1.702000000     2.121000000    -1.369000000
C    -2.485000000     3.079000000    -2.284000000
O    -3.751000000     3.059000000    -2.360000000
O    -1.837000000     3.903000000    -2.920000000
O    -0.567000000     6.139000000    -5.314000000
H    -0.829000000     6.491000000    -4.463000000
H    -0.666000000     5.192000000    -5.222000000
O    -1.859000000     0.314000000    -5.854000000
H    -2.598000000    -0.258000000    -6.062000000
H    -1.494000000    -0.050000000    -5.047000000
O    -1.174000000    -0.876000000    -3.299000000
H    -0.467000000    -0.584000000    -2.723000000
H    -1.968000000    -0.516000000    -2.904000000
O    -4.985000000    -1.375000000    -4.415000000
H    -5.049000000    -0.579000000    -3.888000000
H    -5.603000000    -1.982000000    -4.008000000
O    -6.103000000     2.910000000    -1.163000000
H    -5.852000000     2.733000000    -0.256000000
H    -5.271000000     3.005000000    -1.627000000
O    -3.836000000    -1.078000000    -6.759000000
H    -4.343000000    -1.136000000    -5.949000000
H    -4.362000000    -0.517000000    -7.330000000
O    -2.523000000     9.176000000    -3.290000000
H    -2.512000000     9.470000000    -4.200000000
H    -2.483000000     8.221000000    -3.345000000
O    -2.662000000     4.304000000    -7.234000000
H    -2.253000000     4.822000000    -7.928000000
H    -1.927000000     3.893000000    -6.778000000
O    -1.128000000     3.360000000    -5.433000000
H    -1.226000000     3.574000000    -4.505000000
H    -1.220000000     2.408000000    -5.470000000
O    -4.750000000     6.876000000    -6.107000000
H    -4.691000000     6.147000000    -5.489000000
H    -5.685000000     7.074000000    -6.155000000
O    -8.169000000     0.363000000    -3.401000000
H    -8.276000000     0.562000000    -4.331000000
H    -7.222000000     0.368000000    -3.263000000
O    -2.188000000     6.627000000    -2.924000000
H    -2.678000000     5.905000000    -3.318000000
H    -1.521000000     6.198000000    -2.387000000
O    -5.570000000     1.123000000    -3.257000000
H    -4.856000000     1.656000000    -2.905000000
H    -6.124000000     1.746000000    -3.727000000
O    -4.124000000     4.684000000    -4.427000000
H    -3.457000000     4.441000000    -5.069000000
H    -3.866000000     4.225000000    -3.627000000
O    -8.557000000     1.399000000    -1.136000000
H    -8.552000000     0.950000000    -1.981000000
H    -7.859000000     2.050000000    -1.206000000
O    -3.982000000     2.180000000    -6.135000000
H    -3.617000000     3.003000000    -6.460000000
H    -3.248000000     1.566000000    -6.157000000
O    -6.841000000     4.121000000    -5.368000000
H    -7.452000000     4.624000000    -4.830000000
H    -5.979000000     4.324000000    -5.005000000
O    -8.245000000     5.286000000    -1.115000000
H    -7.512000000     4.677000000    -1.023000000
H    -8.359000000     5.381000000    -2.061000000
O    -0.960000000     0.914000000    -8.590000000
H    -0.868000000     0.989000000    -7.641000000
H    -0.078000000     0.710000000    -8.901000000
