218
-1460.51600
C    -4.175000000    -3.511000000    -0.429000000
H    -4.215000000    -3.267000000     0.630000000
C    -2.987000000    -4.076000000    -0.932000000
C    -2.906000000    -4.387000000    -2.282000000
H    -1.961000000    -4.775000000    -2.655000000
C    -1.706000000    -4.052000000    -0.057000000
O    -2.067000000    -4.256000000     1.342000000
H    -1.319000000    -3.054000000    -0.311000000
O    -0.827000000    -5.121000000    -0.486000000
C     0.520000000    -4.777000000    -0.390000000
C     1.078000000    -4.175000000    -1.542000000
H     0.418000000    -4.165000000    -2.406000000
C     2.267000000    -3.554000000    -1.468000000
O     2.705000000    -2.884000000    -2.544000000
C     3.136000000    -3.729000000    -0.377000000
C     4.518000000    -3.026000000    -0.454000000
H     5.342000000    -3.476000000     0.103000000
C     4.638000000    -1.508000000    -0.203000000
C     4.712000000    -1.124000000     1.103000000
H     4.771000000    -1.926000000     1.834000000
H     4.918000000    -3.080000000    -1.469000000
C     2.617000000    -4.450000000     0.730000000
H     3.190000000    -4.461000000     1.654000000
C     1.238000000    -4.739000000     0.785000000
C     0.654000000    -5.254000000     2.044000000
H     1.479000000    -5.616000000     2.661000000
H     0.041000000    -6.123000000     1.795000000
C    -0.081000000    -4.204000000     2.833000000
C     0.650000000    -3.390000000     3.692000000
H     1.637000000    -3.597000000     4.097000000
C    -1.359000000    -3.739000000     2.430000000
C    -1.983000000    -2.625000000     3.020000000
H    -2.958000000    -2.287000000     2.677000000
C    -1.337000000    -1.965000000     3.979000000
O    -1.829000000    -0.769000000     4.477000000
C    -1.464000000     0.497000000     4.034000000
C    -2.646000000     1.390000000     3.652000000
C    -2.569000000     2.780000000     3.671000000
H    -1.709000000     3.193000000     4.191000000
C    -3.794000000     0.825000000     3.090000000
H    -3.774000000    -0.262000000     3.096000000
O    -0.590000000     1.084000000     5.017000000
H    -0.881000000     0.403000000     3.106000000
C     0.001000000    -2.301000000     4.291000000
C     0.741000000    -1.474000000     5.262000000
H     1.535000000    -2.104000000     5.667000000
H     0.148000000    -1.255000000     6.152000000
C     1.353000000    -0.172000000     4.653000000
C     2.614000000    -0.270000000     4.134000000
H     3.121000000    -1.228000000     4.050000000
C     0.721000000     1.040000000     4.668000000
C     1.308000000     2.193000000     4.137000000
H     0.791000000     3.141000000     4.013000000
C     2.588000000     2.151000000     3.524000000
O     3.020000000     3.201000000     2.738000000
C     2.976000000     2.925000000     1.282000000
C     2.484000000     4.087000000     0.505000000
C     1.328000000     4.745000000     0.936000000
H     0.805000000     4.390000000     1.820000000
C     3.109000000     4.507000000    -0.674000000
H     4.032000000     4.064000000    -1.038000000
O     4.273000000     2.520000000     0.844000000
H     2.242000000     2.125000000     1.107000000
C     3.260000000     0.853000000     3.561000000
C     4.576000000     0.633000000     2.993000000
H     4.975000000    -0.189000000     3.591000000
H     5.202000000     1.511000000     3.168000000
C     4.567000000     0.202000000     1.485000000
C     4.392000000     1.140000000     0.496000000
C     4.266000000     0.800000000    -0.847000000
H     4.096000000     1.576000000    -1.589000000
C     4.390000000    -0.544000000    -1.203000000
O     4.101000000    -0.969000000    -2.401000000
C     2.760000000    -1.424000000    -2.617000000
H     2.151000000    -0.978000000    -1.817000000
C     2.074000000    -0.818000000    -3.898000000
C     1.059000000    -1.483000000    -4.636000000
H     0.670000000    -2.454000000    -4.341000000
C     2.481000000     0.427000000    -4.301000000
H     3.193000000     1.118000000    -3.857000000
C     1.744000000     1.076000000    -5.329000000
O     1.989000000     2.504000000    -5.574000000
C     0.703000000     0.475000000    -6.017000000
H     0.107000000     1.046000000    -6.724000000
C     0.393000000    -0.808000000    -5.630000000
O    -0.732000000    -1.340000000    -6.276000000
C    -1.266000000    -2.650000000    -6.091000000
C    -2.455000000    -2.922000000    -5.442000000
H    -3.013000000    -2.174000000    -4.885000000
C    -0.636000000    -3.797000000    -6.607000000
H     0.282000000    -3.665000000    -7.174000000
C    -1.007000000    -5.075000000    -6.308000000
H    -0.531000000    -5.971000000    -6.697000000
C    -2.199000000    -5.284000000    -5.651000000
H    -2.502000000    -6.272000000    -5.315000000
C    -2.933000000    -4.179000000    -5.218000000
O    -4.031000000    -4.464000000    -4.436000000
C    -4.073000000    -4.251000000    -3.093000000
C    -5.244000000    -3.647000000    -2.578000000
H    -6.109000000    -3.475000000    -3.213000000
C    -5.255000000    -3.278000000    -1.241000000
O    -6.517000000    -2.720000000    -0.841000000
C    -6.576000000    -2.100000000     0.409000000
C    -6.285000000    -0.787000000     0.557000000
H    -6.146000000    -0.158000000    -0.319000000
C    -6.893000000    -2.887000000     1.552000000
H    -7.153000000    -3.921000000     1.340000000
C    -6.761000000    -2.299000000     2.787000000
H    -7.178000000    -2.792000000     3.661000000
C    -6.449000000    -0.953000000     2.956000000
H    -6.341000000    -0.559000000     3.963000000
C    -6.277000000    -0.200000000     1.799000000
O    -5.908000000     1.113000000     1.928000000
C    -4.754000000     1.595000000     2.502000000
C    -4.747000000     3.025000000     2.602000000
H    -5.601000000     3.564000000     2.200000000
C    -3.592000000     3.618000000     3.142000000
O    -3.616000000     4.986000000     3.384000000
C    -2.370000000     5.610000000     3.375000000
C    -1.853000000     5.925000000     2.116000000
H    -2.418000000     5.595000000     1.248000000
C    -1.713000000     6.057000000     4.604000000
H    -2.179000000     5.893000000     5.573000000
C    -0.493000000     6.684000000     4.385000000
H     0.064000000     6.992000000     5.265000000
C     0.005000000     6.896000000     3.094000000
H     1.041000000     7.219000000     3.038000000
C    -0.650000000     6.524000000     1.926000000
O    -0.110000000     6.615000000     0.710000000
C     0.869000000     5.872000000     0.245000000
C     1.480000000     6.272000000    -0.925000000
H     1.161000000     7.115000000    -1.532000000
C     2.623000000     5.537000000    -1.393000000
O     3.357000000     5.931000000    -2.479000000
C     3.542000000     5.197000000    -3.644000000
C     4.643000000     5.481000000    -4.440000000
H     5.278000000     6.324000000    -4.181000000
C     4.896000000     4.678000000    -5.577000000
H     5.639000000     4.952000000    -6.322000000
C     4.109000000     3.581000000    -5.846000000
H     4.244000000     3.003000000    -6.757000000
C     3.006000000     3.343000000    -5.063000000
C     2.749000000     4.044000000    -3.869000000
H     1.844000000     3.862000000    -3.295000000
C    -0.757000000     2.554000000    -1.265000000
H    -0.166000000     3.335000000    -1.736000000
C    -0.050000000     1.388000000    -0.808000000
H     1.019000000     1.299000000    -0.986000000
C    -0.830000000     0.365000000    -0.235000000
C    -0.088000000    -0.824000000     0.340000000
H    -0.829000000    -1.401000000     0.898000000
H     0.200000000    -1.493000000    -0.474000000
H     0.774000000    -0.478000000     0.914000000
C    -2.196000000     0.505000000    -0.224000000
H    -2.804000000    -0.269000000     0.237000000
C    -2.916000000     1.628000000    -0.645000000
H    -3.992000000     1.783000000    -0.664000000
C    -2.166000000     2.712000000    -1.193000000
C    -2.813000000     3.975000000    -1.698000000
O    -4.020000000     4.202000000    -1.445000000
O    -2.076000000     4.847000000    -2.120000000
O     1.191000000     7.347000000    -4.522000000
H     0.476000000     7.933000000    -4.770000000
H     0.764000000     6.636000000    -4.045000000
O    -1.895000000     2.072000000    -4.920000000
H    -2.546000000     1.787000000    -5.560000000
H    -2.126000000     1.605000000    -4.118000000
O    -6.975000000     6.556000000    -1.468000000
H    -7.012000000     7.495000000    -1.285000000
H    -6.173000000     6.260000000    -1.038000000
O    -2.896000000     0.237000000    -3.302000000
H    -3.814000000     0.187000000    -3.565000000
H    -2.925000000     0.358000000    -2.352000000
O    -1.255000000     7.943000000    -4.948000000
H    -1.897000000     8.508000000    -5.378000000
H    -1.169000000     7.190000000    -5.533000000
O    -5.538000000     0.612000000    -3.666000000
H    -5.663000000     0.161000000    -4.502000000
H    -6.425000000     0.794000000    -3.357000000
O    -4.341000000     6.698000000    -0.310000000
H    -4.127000000     5.807000000    -0.587000000
H    -4.835000000     6.584000000     0.502000000
O    -0.658000000     9.270000000    -0.243000000
H    -0.216000000     8.573000000     0.241000000
H    -1.011000000     8.835000000    -1.020000000
O    -0.512000000     4.515000000    -4.228000000
H    -1.107000000     4.608000000    -3.484000000
H    -0.419000000     3.569000000    -4.344000000
O    -3.580000000     9.012000000    -2.079000000
H    -4.527000000     8.950000000    -1.956000000
H    -3.225000000     8.266000000    -1.597000000
O    -3.747000000     4.154000000    -5.185000000
H    -3.091000000     3.536000000    -4.862000000
H    -3.655000000     4.124000000    -6.137000000
O    -7.905000000     1.528000000    -3.031000000
H    -8.817000000     1.722000000    -3.248000000
H    -7.423000000     2.309000000    -3.304000000
O    -1.046000000     7.328000000    -2.306000000
H    -1.482000000     7.600000000    -3.114000000
H    -1.428000000     6.474000000    -2.103000000
O    -8.187000000     2.440000000     1.100000000
H    -7.367000000     2.529000000     0.615000000
H    -8.605000000     3.298000000     1.022000000
O    -5.913000000     3.948000000    -3.573000000
H    -5.413000000     4.267000000    -2.821000000
H    -5.250000000     3.607000000    -4.174000000
O    -4.202000000     6.132000000    -3.511000000
H    -3.541000000     5.809000000    -2.899000000
H    -4.167000000     5.519000000    -4.246000000
O    -6.496000000     3.001000000    -0.876000000
H    -6.212000000     2.499000000    -1.640000000
H    -5.785000000     3.623000000    -0.721000000
O    -0.653000000     5.892000000    -6.624000000
H     0.023000000     5.440000000    -7.130000000
H    -0.540000000     5.569000000    -5.730000000
O    -6.638000000     7.367000000    -4.477000000
H    -5.778000000     7.008000000    -4.258000000
H    -7.208000000     7.074000000    -3.767000000
