218
-1469.56646
C    -4.235000000    -1.346000000    -2.981000000
H    -3.763000000    -0.913000000    -3.859000000
C    -4.524000000    -0.549000000    -1.898000000
C    -5.076000000    -1.132000000    -0.774000000
H    -5.144000000    -0.571000000     0.154000000
C    -4.012000000     0.861000000    -1.816000000
O    -3.707000000     1.390000000    -3.117000000
H    -3.144000000     0.779000000    -1.146000000
O    -4.867000000     1.742000000    -1.023000000
C    -4.256000000     2.533000000    -0.079000000
C    -4.154000000     2.128000000     1.261000000
H    -4.698000000     1.286000000     1.683000000
C    -3.174000000     2.733000000     2.094000000
O    -2.934000000     2.083000000     3.262000000
C    -2.297000000     3.745000000     1.634000000
C    -1.316000000     4.588000000     2.515000000
H    -1.298000000     5.607000000     2.123000000
C     0.056000000     3.957000000     2.597000000
C     1.068000000     4.557000000     1.928000000
H     0.997000000     5.507000000     1.404000000
H    -1.773000000     4.568000000     3.507000000
C    -2.446000000     4.172000000     0.308000000
H    -1.807000000     4.991000000    -0.012000000
C    -3.405000000     3.619000000    -0.556000000
C    -3.459000000     4.014000000    -1.920000000
H    -3.314000000     5.096000000    -1.951000000
H    -4.452000000     3.883000000    -2.355000000
C    -2.333000000     3.320000000    -2.621000000
C    -1.096000000     3.924000000    -2.831000000
H    -0.977000000     4.932000000    -2.441000000
C    -2.555000000     2.068000000    -3.251000000
C    -1.565000000     1.400000000    -3.827000000
H    -1.777000000     0.403000000    -4.204000000
C    -0.365000000     2.002000000    -4.115000000
O     0.561000000     1.077000000    -4.659000000
C     1.581000000     0.522000000    -3.818000000
C     1.878000000    -0.938000000    -4.301000000
C     3.104000000    -1.497000000    -3.963000000
H     3.885000000    -0.923000000    -3.471000000
C     0.899000000    -1.680000000    -4.925000000
H    -0.024000000    -1.211000000    -5.256000000
O     2.765000000     1.420000000    -3.980000000
H     1.249000000     0.469000000    -2.770000000
C    -0.110000000     3.311000000    -3.603000000
C     1.266000000     3.970000000    -3.810000000
H     1.254000000     5.058000000    -3.715000000
H     1.666000000     3.616000000    -4.762000000
C     2.272000000     3.449000000    -2.746000000
C     2.357000000     4.080000000    -1.488000000
H     1.750000000     4.976000000    -1.391000000
C     2.997000000     2.270000000    -2.927000000
C     3.818000000     1.760000000    -1.940000000
H     4.321000000     0.799000000    -2.015000000
C     3.910000000     2.378000000    -0.762000000
O     4.578000000     1.641000000     0.224000000
C     3.732000000     1.124000000     1.235000000
C     4.144000000    -0.292000000     1.743000000
C     4.912000000    -1.118000000     0.893000000
H     5.147000000    -0.712000000    -0.087000000
C     3.875000000    -0.797000000     3.011000000
H     3.415000000    -0.164000000     3.765000000
O     3.688000000     2.075000000     2.337000000
H     2.694000000     1.148000000     0.873000000
C     3.194000000     3.628000000    -0.507000000
C     3.317000000     4.410000000     0.826000000
H     3.363000000     5.500000000     0.782000000
H     4.265000000     4.104000000     1.273000000
C     2.278000000     3.874000000     1.786000000
C     2.473000000     2.649000000     2.545000000
C     1.467000000     2.156000000     3.349000000
H     1.581000000     1.314000000     4.027000000
C     0.243000000     2.842000000     3.376000000
O    -0.729000000     2.265000000     4.138000000
C    -1.746000000     1.382000000     3.465000000
H    -1.358000000     1.076000000     2.482000000
C    -1.919000000     0.138000000     4.388000000
C    -3.019000000    -0.673000000     4.160000000
H    -3.747000000    -0.272000000     3.459000000
C    -0.852000000    -0.309000000     5.217000000
H     0.045000000     0.293000000     5.336000000
C    -1.015000000    -1.492000000     5.927000000
O    -0.082000000    -1.991000000     6.831000000
C    -2.209000000    -2.170000000     5.819000000
H    -2.167000000    -3.140000000     6.308000000
C    -3.182000000    -1.787000000     4.955000000
O    -4.286000000    -2.567000000     5.027000000
C    -5.330000000    -2.566000000     4.077000000
C    -5.075000000    -2.920000000     2.773000000
H    -4.101000000    -3.339000000     2.534000000
C    -6.567000000    -2.032000000     4.329000000
H    -6.664000000    -1.629000000     5.334000000
C    -7.531000000    -1.914000000     3.321000000
H    -8.464000000    -1.418000000     3.579000000
C    -7.259000000    -2.245000000     2.029000000
H    -7.971000000    -2.099000000     1.220000000
C    -6.005000000    -2.717000000     1.749000000
O    -5.653000000    -3.187000000     0.437000000
C    -5.242000000    -2.526000000    -0.723000000
C    -4.995000000    -3.305000000    -1.834000000
H    -5.081000000    -4.386000000    -1.761000000
C    -4.433000000    -2.706000000    -2.962000000
O    -4.185000000    -3.452000000    -4.077000000
C    -3.334000000    -3.087000000    -5.090000000
C    -2.061000000    -3.701000000    -5.029000000
H    -1.797000000    -4.247000000    -4.127000000
C    -3.794000000    -2.366000000    -6.189000000
H    -4.782000000    -1.939000000    -6.338000000
C    -2.810000000    -2.149000000    -7.175000000
H    -3.094000000    -1.425000000    -7.934000000
C    -1.514000000    -2.749000000    -7.141000000
H    -0.823000000    -2.497000000    -7.941000000
C    -1.102000000    -3.417000000    -6.010000000
O     0.208000000    -3.787000000    -5.870000000
C     1.076000000    -3.052000000    -5.097000000
C     2.309000000    -3.643000000    -4.712000000
H     2.400000000    -4.707000000    -4.916000000
C     3.319000000    -2.864000000    -4.172000000
O     4.488000000    -3.470000000    -3.800000000
C     5.407000000    -2.931000000    -2.965000000
C     5.385000000    -3.296000000    -1.582000000
H     4.485000000    -3.775000000    -1.204000000
C     6.509000000    -2.200000000    -3.505000000
H     6.389000000    -1.863000000    -4.531000000
C     7.550000000    -1.752000000    -2.683000000
H     8.380000000    -1.203000000    -3.119000000
C     7.511000000    -2.116000000    -1.323000000
H     8.319000000    -1.833000000    -0.653000000
C     6.424000000    -2.865000000    -0.850000000
O     6.222000000    -3.060000000     0.522000000
C     5.375000000    -2.344000000     1.294000000
C     5.002000000    -2.886000000     2.508000000
H     5.239000000    -3.925000000     2.722000000
C     4.302000000    -2.080000000     3.383000000
O     4.192000000    -2.465000000     4.755000000
C     3.365000000    -2.001000000     5.762000000
C     3.979000000    -1.036000000     6.539000000
H     5.057000000    -0.913000000     6.470000000
C     3.248000000    -0.444000000     7.507000000
H     3.705000000     0.241000000     8.217000000
C     1.882000000    -0.770000000     7.652000000
H     1.272000000    -0.297000000     8.418000000
C     1.269000000    -1.670000000     6.804000000
C     2.050000000    -2.313000000     5.847000000
H     1.637000000    -3.092000000     5.211000000
C    -1.101000000    -2.641000000    -0.395000000
H    -2.054000000    -3.164000000    -0.393000000
C    -0.972000000    -1.246000000    -0.212000000
H    -1.874000000    -0.644000000    -0.147000000
C     0.275000000    -0.625000000    -0.051000000
C     0.254000000     0.828000000     0.134000000
H    -0.773000000     1.183000000     0.246000000
H     0.603000000     0.993000000     1.156000000
H     0.920000000     1.279000000    -0.604000000
C     1.354000000    -1.351000000    -0.305000000
H     2.312000000    -0.850000000    -0.421000000
C     1.338000000    -2.749000000    -0.510000000
H     2.260000000    -3.325000000    -0.514000000
C     0.095000000    -3.345000000    -0.491000000
C    -0.011000000    -4.859000000    -0.549000000
O     0.997000000    -5.511000000    -0.841000000
O    -1.105000000    -5.358000000    -0.434000000
O     4.862000000    -5.566000000     0.674000000
H     5.441000000    -6.203000000     1.093000000
H     5.429000000    -4.820000000     0.477000000
O     1.981000000    -7.230000000    -4.972000000
H     1.648000000    -7.775000000    -5.684000000
H     2.931000000    -7.330000000    -5.017000000
O     5.849000000    -6.951000000    -1.828000000
H     5.800000000    -6.174000000    -2.384000000
H     5.117000000    -6.856000000    -1.219000000
O    -1.963000000    -7.950000000     3.602000000
H    -1.232000000    -7.743000000     3.019000000
H    -1.876000000    -8.888000000     3.771000000
O    -2.783000000    -6.426000000    -2.359000000
H    -1.995000000    -6.669000000    -2.846000000
H    -2.454000000    -6.040000000    -1.548000000
O     2.346000000    -7.729000000    -0.140000000
H     1.871000000    -6.918000000    -0.319000000
H     2.200000000    -8.269000000    -0.917000000
O    -1.588000000   -10.567000000    -1.770000000
H    -2.272000000   -10.037000000    -1.361000000
H    -1.288000000   -11.150000000    -1.072000000
O    -5.094000000    -6.189000000     0.733000000
H    -5.374000000    -5.365000000     0.334000000
H    -4.374000000    -5.941000000     1.313000000
O    -2.726000000    -8.867000000    -4.436000000
H    -2.920000000    -9.699000000    -4.005000000
H    -2.883000000    -8.206000000    -3.763000000
O    -4.469000000    -8.128000000    -0.863000000
H    -4.760000000    -7.454000000    -0.249000000
H    -3.861000000    -7.675000000    -1.446000000
O    -2.684000000    -5.451000000     1.799000000
H    -2.138000000    -5.914000000     2.434000000
H    -2.091000000    -5.248000000     1.076000000
O    -0.731000000    -7.986000000    -0.746000000
H    -0.827000000    -7.033000000    -0.753000000
H    -0.447000000    -8.191000000     0.145000000
O    -0.256000000    -6.281000000    -3.547000000
H     0.510000000    -6.616000000    -4.014000000
H     0.077000000    -6.041000000    -2.682000000
O     3.952000000    -9.127000000     1.538000000
H     3.473000000    -8.710000000     0.821000000
H     3.974000000   -10.055000000     1.303000000
O     2.611000000    -5.940000000     2.317000000
H     2.294000000    -6.724000000     1.868000000
H     3.341000000    -5.634000000     1.778000000
O     0.383000000    -8.304000000     1.883000000
H     1.105000000    -8.058000000     1.304000000
H     0.796000000    -8.443000000     2.735000000
O     1.205000000    -9.205000000    -2.533000000
H     0.768000000    -8.866000000    -3.314000000
H     0.588000000    -9.036000000    -1.821000000
O     3.090000000    -6.064000000    -2.423000000
H     2.428000000    -6.545000000    -2.920000000
H     2.597000000    -5.630000000    -1.726000000
O     0.351000000    -4.554000000     3.472000000
H     1.140000000    -4.800000000     2.989000000
H     0.027000000    -3.775000000     3.020000000
