218
-1463.22771
C    -3.962000000    -2.867000000     2.333000000
H    -3.794000000    -2.435000000     3.316000000
C    -2.822000000    -3.267000000     1.667000000
C    -3.042000000    -3.574000000     0.316000000
H    -2.181000000    -3.903000000    -0.260000000
C    -1.447000000    -3.301000000     2.266000000
O    -1.528000000    -3.218000000     3.691000000
H    -0.829000000    -2.429000000     2.007000000
O    -0.872000000    -4.430000000     1.674000000
C     0.473000000    -4.377000000     1.377000000
C     0.888000000    -4.451000000     0.098000000
H     0.090000000    -4.674000000    -0.605000000
C     2.181000000    -4.102000000    -0.364000000
O     2.368000000    -4.070000000    -1.721000000
C     3.121000000    -3.613000000     0.523000000
C     4.564000000    -3.269000000     0.141000000
H     5.137000000    -3.375000000     1.065000000
C     4.576000000    -1.828000000    -0.393000000
C     4.905000000    -0.788000000     0.481000000
H     5.277000000    -1.030000000     1.473000000
H     4.854000000    -3.941000000    -0.669000000
C     2.679000000    -3.509000000     1.828000000
H     3.385000000    -3.130000000     2.562000000
C     1.456000000    -3.957000000     2.319000000
C     1.212000000    -3.786000000     3.823000000
H     2.177000000    -3.924000000     4.317000000
H     0.555000000    -4.595000000     4.149000000
C     0.676000000    -2.489000000     4.188000000
C     1.625000000    -1.456000000     4.524000000
H     2.685000000    -1.689000000     4.598000000
C    -0.727000000    -2.275000000     4.166000000
C    -1.220000000    -1.007000000     4.501000000
H    -2.291000000    -0.860000000     4.392000000
C    -0.294000000     0.057000000     4.774000000
O    -0.778000000     1.313000000     4.897000000
C    -0.645000000     2.137000000     3.746000000
C    -1.892000000     2.867000000     3.318000000
C    -1.832000000     4.110000000     2.755000000
H    -0.871000000     4.616000000     2.705000000
C    -3.119000000     2.223000000     3.457000000
H    -3.213000000     1.388000000     4.147000000
O     0.456000000     3.020000000     3.932000000
H    -0.396000000     1.468000000     2.909000000
C     1.073000000    -0.237000000     4.848000000
C     2.029000000     1.010000000     5.115000000
H     2.909000000     0.735000000     5.701000000
H     1.566000000     1.785000000     5.729000000
C     2.393000000     1.647000000     3.827000000
C     3.654000000     1.307000000     3.102000000
H     4.365000000     0.610000000     3.539000000
C     1.648000000     2.699000000     3.324000000
C     1.992000000     3.379000000     2.165000000
H     1.341000000     4.156000000     1.772000000
C     3.147000000     3.012000000     1.468000000
O     3.376000000     3.582000000     0.276000000
C     2.992000000     2.809000000    -0.929000000
C     2.267000000     3.628000000    -1.986000000
C     1.638000000     4.871000000    -1.711000000
H     1.729000000     5.339000000    -0.734000000
C     1.991000000     3.042000000    -3.254000000
H     2.420000000     2.065000000    -3.461000000
O     4.191000000     2.243000000    -1.527000000
H     2.385000000     1.932000000    -0.658000000
C     3.976000000     1.934000000     1.918000000
C     5.263000000     1.625000000     1.196000000
H     6.006000000     1.180000000     1.860000000
H     5.707000000     2.520000000     0.756000000
C     4.932000000     0.604000000     0.120000000
C     4.465000000     0.942000000    -1.210000000
C     4.127000000    -0.088000000    -2.128000000
H     3.782000000     0.177000000    -3.124000000
C     4.178000000    -1.423000000    -1.684000000
O     3.614000000    -2.304000000    -2.543000000
C     2.249000000    -2.816000000    -2.422000000
H     1.764000000    -2.113000000    -1.729000000
C     1.551000000    -2.819000000    -3.708000000
C     0.463000000    -3.760000000    -3.918000000
H     0.189000000    -4.444000000    -3.119000000
C     1.779000000    -1.830000000    -4.651000000
H     2.518000000    -1.051000000    -4.481000000
C     1.197000000    -1.976000000    -5.892000000
O     1.695000000    -1.285000000    -6.991000000
C     0.208000000    -2.938000000    -6.122000000
H    -0.318000000    -2.972000000    -7.073000000
C    -0.237000000    -3.788000000    -5.109000000
O    -1.340000000    -4.663000000    -5.286000000
C    -2.113000000    -5.237000000    -4.262000000
C    -3.026000000    -4.437000000    -3.618000000
H    -3.195000000    -3.410000000    -3.933000000
C    -1.825000000    -6.513000000    -3.766000000
H    -1.118000000    -7.129000000    -4.314000000
C    -2.459000000    -6.924000000    -2.604000000
H    -2.246000000    -7.918000000    -2.218000000
C    -3.297000000    -6.110000000    -1.864000000
H    -3.620000000    -6.485000000    -0.896000000
C    -3.596000000    -4.858000000    -2.347000000
O    -4.432000000    -4.019000000    -1.663000000
C    -4.248000000    -3.611000000    -0.348000000
C    -5.392000000    -3.207000000     0.431000000
H    -6.392000000    -3.106000000     0.016000000
C    -5.215000000    -2.865000000     1.761000000
O    -6.313000000    -2.396000000     2.509000000
C    -6.299000000    -1.285000000     3.376000000
C    -5.783000000    -0.113000000     2.888000000
H    -5.439000000     0.022000000     1.866000000
C    -7.088000000    -1.287000000     4.519000000
H    -7.533000000    -2.249000000     4.760000000
C    -7.142000000    -0.170000000     5.267000000
H    -7.710000000     0.044000000     6.169000000
C    -6.510000000     1.005000000     4.895000000
H    -6.657000000     1.876000000     5.527000000
C    -5.863000000     1.037000000     3.675000000
O    -5.595000000     2.249000000     3.105000000
C    -4.305000000     2.774000000     2.911000000
C    -4.204000000     3.888000000     2.151000000
H    -5.095000000     4.186000000     1.604000000
C    -2.975000000     4.561000000     2.075000000
O    -2.921000000     5.699000000     1.190000000
C    -1.779000000     6.297000000     0.740000000
C    -1.428000000     6.200000000    -0.644000000
H    -2.073000000     5.554000000    -1.235000000
C    -1.032000000     7.141000000     1.598000000
H    -1.336000000     7.273000000     2.633000000
C     0.053000000     7.843000000     1.110000000
H     0.524000000     8.564000000     1.773000000
C     0.450000000     7.766000000    -0.197000000
H     1.330000000     8.319000000    -0.515000000
C    -0.267000000     6.872000000    -1.051000000
O     0.273000000     6.701000000    -2.296000000
C     0.803000000     5.448000000    -2.627000000
C     0.647000000     4.949000000    -3.930000000
H     0.135000000     5.518000000    -4.702000000
C     1.258000000     3.720000000    -4.185000000
O     0.963000000     3.280000000    -5.480000000
C     1.765000000     2.337000000    -6.207000000
C     2.823000000     2.716000000    -7.100000000
H     3.052000000     3.777000000    -7.160000000
C     3.509000000     1.762000000    -7.842000000
H     4.350000000     2.099000000    -8.443000000
C     3.211000000     0.417000000    -7.743000000
H     3.919000000    -0.275000000    -8.190000000
C     2.075000000     0.058000000    -6.985000000
C     1.379000000     1.015000000    -6.221000000
H     0.529000000     0.672000000    -5.636000000
C    -0.983000000     1.078000000    -2.478000000
H    -0.809000000     1.309000000    -3.525000000
C    -0.051000000     0.255000000    -1.812000000
H     0.750000000    -0.212000000    -2.379000000
C    -0.123000000     0.077000000    -0.429000000
C     0.990000000    -0.691000000     0.320000000
H     0.753000000    -1.748000000     0.187000000
H     1.956000000    -0.440000000    -0.123000000
H     0.960000000    -0.422000000     1.378000000
C    -1.243000000     0.522000000     0.273000000
H    -1.470000000     0.248000000     1.300000000
C    -2.161000000     1.333000000    -0.389000000
H    -2.962000000     1.766000000     0.204000000
C    -2.067000000     1.646000000    -1.718000000
C    -3.104000000     2.417000000    -2.480000000
O    -4.231000000     2.575000000    -1.991000000
O    -2.879000000     2.816000000    -3.615000000
O    -2.093000000     0.646000000    -8.178000000
H    -1.557000000     1.437000000    -8.117000000
H    -2.347000000     0.459000000    -7.275000000
O    -5.432000000     2.268000000    -6.160000000
H    -5.103000000     1.383000000    -6.000000000
H    -5.478000000     2.667000000    -5.291000000
O    -0.773000000     2.809000000    -7.936000000
H    -1.224000000     3.021000000    -7.119000000
H     0.155000000     2.929000000    -7.736000000
O    -0.716000000     5.818000000    -6.931000000
H    -0.825000000     6.580000000    -6.363000000
H    -1.108000000     5.095000000    -6.440000000
O    -5.572000000     0.723000000    -0.646000000
H    -4.950000000     0.024000000    -0.848000000
H    -5.096000000     1.530000000    -0.839000000
O    -7.366000000    -0.520000000    -3.741000000
H    -8.011000000    -1.039000000    -3.260000000
H    -7.666000000    -0.548000000    -4.650000000
O    -4.693000000     4.887000000    -4.472000000
H    -4.140000000     4.345000000    -3.911000000
H    -4.357000000     5.776000000    -4.353000000
O    -4.685000000    -0.523000000    -4.950000000
H    -5.245000000    -0.580000000    -4.176000000
H    -4.881000000    -1.317000000    -5.447000000
O    -7.324000000     4.232000000    -1.750000000
H    -6.381000000     4.366000000    -1.650000000
H    -7.407000000     3.329000000    -2.055000000
O    -2.173000000     3.920000000    -5.867000000
H    -3.001000000     4.268000000    -6.198000000
H    -2.374000000     3.624000000    -4.980000000
O    -2.638000000     1.001000000    -5.594000000
H    -3.236000000     0.408000000    -5.139000000
H    -2.534000000     1.742000000    -4.998000000
O    -7.308000000     0.633000000    -7.344000000
H    -6.670000000     1.245000000    -6.976000000
H    -6.778000000    -0.011000000    -7.814000000
O    -7.299000000     5.002000000    -5.347000000
H    -7.710000000     4.631000000    -4.566000000
H    -6.362000000     4.863000000    -5.214000000
O    -6.653000000     2.024000000    -3.578000000
H    -7.025000000     1.143000000    -3.539000000
H    -5.807000000     1.946000000    -3.135000000
O    -4.875000000     5.118000000    -0.956000000
H    -4.264000000     5.611000000    -0.408000000
H    -4.339000000     4.437000000    -1.361000000
O    -6.358000000     7.212000000    -2.169000000
H    -6.781000000     7.593000000    -1.398000000
H    -5.819000000     6.502000000    -1.820000000
O    -7.705000000    -0.883000000    -0.270000000
H    -7.248000000    -1.310000000     0.454000000
H    -7.111000000    -0.187000000    -0.551000000
O    -4.050000000     7.410000000    -4.195000000
H    -3.328000000     7.695000000    -4.756000000
H    -4.108000000     8.085000000    -3.519000000
O    -9.302000000     2.896000000    -4.522000000
H    -8.492000000     2.451000000    -4.272000000
H    -9.903000000     2.188000000    -4.753000000
