218
-1447.47363
C    -3.766000000    -1.293000000     2.952000000
H    -3.206000000    -0.616000000     3.591000000
C    -3.208000000    -2.465000000     2.522000000
C    -4.029000000    -3.302000000     1.706000000
H    -3.609000000    -4.197000000     1.254000000
C    -1.710000000    -2.888000000     2.871000000
O    -1.356000000    -2.350000000     4.128000000
H    -1.064000000    -2.321000000     2.184000000
O    -1.507000000    -4.256000000     2.809000000
C    -0.347000000    -4.509000000     2.074000000
C    -0.481000000    -4.771000000     0.707000000
H    -1.464000000    -5.052000000     0.338000000
C     0.657000000    -4.765000000    -0.068000000
O     0.460000000    -4.872000000    -1.447000000
C     1.950000000    -4.647000000     0.438000000
C     3.210000000    -4.708000000    -0.319000000
H     4.086000000    -5.046000000     0.240000000
C     3.638000000    -3.347000000    -0.927000000
C     4.501000000    -2.405000000    -0.271000000
H     4.943000000    -2.628000000     0.697000000
H     3.104000000    -5.472000000    -1.091000000
C     2.031000000    -4.453000000     1.801000000
H     3.033000000    -4.447000000     2.222000000
C     0.918000000    -4.292000000     2.618000000
C     1.054000000    -3.795000000     4.076000000
H     2.009000000    -4.085000000     4.519000000
H     0.272000000    -4.178000000     4.735000000
C     1.049000000    -2.253000000     4.126000000
C     2.176000000    -1.384000000     4.091000000
H     3.109000000    -1.932000000     3.987000000
C    -0.168000000    -1.625000000     4.263000000
C    -0.287000000    -0.188000000     4.404000000
H    -1.257000000     0.301000000     4.433000000
C     0.869000000     0.612000000     4.433000000
O     0.728000000     1.922000000     4.380000000
C     0.845000000     2.626000000     3.052000000
C    -0.226000000     3.722000000     2.983000000
C     0.185000000     4.904000000     2.328000000
H     1.185000000     5.088000000     1.943000000
C    -1.524000000     3.557000000     3.565000000
H    -1.860000000     2.655000000     4.071000000
O     2.121000000     3.237000000     3.053000000
H     0.765000000     1.876000000     2.251000000
C     2.137000000    -0.025000000     4.375000000
C     3.397000000     0.873000000     4.335000000
H     4.236000000     0.241000000     4.636000000
H     3.413000000     1.739000000     5.000000000
C     3.744000000     1.418000000     2.933000000
C     4.599000000     0.680000000     2.138000000
H     5.043000000    -0.280000000     2.389000000
C     3.137000000     2.539000000     2.403000000
C     3.391000000     2.928000000     1.087000000
H     2.982000000     3.848000000     0.678000000
C     4.202000000     2.170000000     0.238000000
O     4.221000000     2.515000000    -1.088000000
C     3.280000000     1.681000000    -1.891000000
C     2.494000000     2.485000000    -2.897000000
C     2.037000000     3.748000000    -2.520000000
H     2.156000000     4.119000000    -1.505000000
C     2.350000000     2.201000000    -4.238000000
H     2.727000000     1.265000000    -4.641000000
O     4.058000000     0.613000000    -2.516000000
H     2.670000000     1.164000000    -1.136000000
C     4.795000000     0.978000000     0.717000000
C     5.531000000    -0.033000000    -0.056000000
H     6.094000000    -0.612000000     0.678000000
H     6.317000000     0.452000000    -0.639000000
C     4.653000000    -1.067000000    -0.794000000
C     4.011000000    -0.736000000    -2.009000000
C     3.140000000    -1.663000000    -2.555000000
H     2.589000000    -1.377000000    -3.448000000
C     2.913000000    -2.919000000    -2.003000000
O     2.019000000    -3.737000000    -2.611000000
C     0.683000000    -3.721000000    -2.244000000
H     0.461000000    -2.871000000    -1.582000000
C    -0.387000000    -3.532000000    -3.329000000
C    -1.762000000    -3.647000000    -3.090000000
H    -2.102000000    -3.981000000    -2.113000000
C    -0.003000000    -2.892000000    -4.487000000
H     1.046000000    -2.713000000    -4.711000000
C    -0.952000000    -2.504000000    -5.471000000
O    -0.612000000    -1.809000000    -6.602000000
C    -2.303000000    -2.592000000    -5.166000000
H    -3.052000000    -2.169000000    -5.830000000
C    -2.691000000    -3.302000000    -4.000000000
O    -4.042000000    -3.394000000    -3.807000000
C    -4.599000000    -4.133000000    -2.705000000
C    -5.066000000    -3.556000000    -1.494000000
H    -5.076000000    -2.476000000    -1.375000000
C    -4.772000000    -5.528000000    -2.833000000
H    -4.225000000    -5.916000000    -3.689000000
C    -5.331000000    -6.284000000    -1.793000000
H    -5.444000000    -7.336000000    -2.042000000
C    -5.751000000    -5.690000000    -0.640000000
H    -6.260000000    -6.294000000     0.107000000
C    -5.625000000    -4.315000000    -0.477000000
O    -6.117000000    -3.690000000     0.655000000
C    -5.343000000    -2.920000000     1.461000000
C    -5.884000000    -1.766000000     1.948000000
H    -6.937000000    -1.532000000     1.816000000
C    -5.078000000    -0.968000000     2.697000000
O    -5.687000000     0.159000000     3.297000000
C    -5.223000000     1.152000000     4.187000000
C    -4.722000000     2.322000000     3.605000000
H    -4.586000000     2.373000000     2.528000000
C    -5.361000000     1.087000000     5.539000000
H    -5.573000000     0.129000000     6.008000000
C    -5.121000000     2.194000000     6.298000000
H    -5.254000000     2.111000000     7.374000000
C    -4.630000000     3.394000000     5.742000000
H    -4.100000000     4.067000000     6.410000000
C    -4.397000000     3.438000000     4.401000000
O    -3.742000000     4.551000000     3.895000000
C    -2.444000000     4.592000000     3.361000000
C    -1.968000000     5.765000000     2.722000000
H    -2.588000000     6.656000000     2.663000000
C    -0.729000000     5.893000000     2.113000000
O    -0.472000000     7.085000000     1.435000000
C     0.279000000     7.209000000     0.308000000
C     0.042000000     6.320000000    -0.744000000
H    -0.853000000     5.703000000    -0.760000000
C     1.356000000     8.074000000     0.269000000
H     1.476000000     8.820000000     1.050000000
C     2.144000000     8.137000000    -0.883000000
H     2.855000000     8.957000000    -0.954000000
C     1.969000000     7.267000000    -1.939000000
H     2.592000000     7.333000000    -2.827000000
C     0.945000000     6.354000000    -1.849000000
O     0.624000000     5.690000000    -2.986000000
C     1.320000000     4.551000000    -3.414000000
C     1.228000000     4.203000000    -4.759000000
H     0.616000000     4.888000000    -5.340000000
C     1.674000000     2.989000000    -5.153000000
O     1.434000000     2.605000000    -6.469000000
C     1.439000000     1.298000000    -6.886000000
C     2.589000000     0.781000000    -7.473000000
H     3.394000000     1.476000000    -7.699000000
C     2.777000000    -0.581000000    -7.591000000
H     3.758000000    -0.964000000    -7.861000000
C     1.771000000    -1.467000000    -7.133000000
H     1.805000000    -2.546000000    -7.261000000
C     0.503000000    -0.956000000    -6.716000000
C     0.351000000     0.420000000    -6.540000000
H    -0.462000000     0.796000000    -5.925000000
C    -0.955000000     1.261000000    -1.994000000
H    -0.740000000     1.570000000    -3.013000000
C    -0.099000000     0.312000000    -1.309000000
H     0.599000000    -0.192000000    -1.973000000
C    -0.207000000    -0.003000000     0.008000000
C     0.850000000    -0.850000000     0.629000000
H     0.527000000    -1.775000000     1.113000000
H     1.576000000    -1.246000000    -0.085000000
H     1.470000000    -0.377000000     1.393000000
C    -1.232000000     0.657000000     0.734000000
H    -1.235000000     0.581000000     1.818000000
C    -2.183000000     1.411000000     0.045000000
H    -2.975000000     1.865000000     0.635000000
C    -2.030000000     1.750000000    -1.281000000
C    -2.920000000     2.794000000    -2.006000000
O    -3.890000000     3.273000000    -1.466000000
O    -2.704000000     3.088000000    -3.144000000
O    -7.795000000     4.592000000    -2.489000000
H    -8.360000000     3.821000000    -2.443000000
H    -6.926000000     4.241000000    -2.684000000
O    -3.957000000     7.857000000    -0.782000000
H    -3.402000000     8.492000000    -0.329000000
H    -3.737000000     7.017000000    -0.380000000
O    -7.452000000    -1.296000000    -1.854000000
H    -6.861000000    -0.684000000    -1.414000000
H    -7.653000000    -1.954000000    -1.189000000
O    -3.915000000     5.337000000     0.146000000
H    -3.793000000     4.581000000    -0.428000000
H    -4.664000000     5.102000000     0.695000000
O    -7.677000000     3.554000000    -6.246000000
H    -7.050000000     2.866000000    -6.024000000
H    -8.107000000     3.238000000    -7.041000000
O    -6.399000000     1.780000000     0.929000000
H    -7.328000000     2.000000000     0.988000000
H    -6.255000000     1.158000000     1.642000000
O    -2.728000000    -1.637000000    -0.896000000
H    -1.895000000    -1.268000000    -0.601000000
H    -3.340000000    -0.902000000    -0.863000000
O    -7.156000000     1.027000000    -4.669000000
H    -6.563000000     0.487000000    -5.191000000
H    -6.587000000     1.463000000    -4.035000000
O    -3.623000000    -0.081000000    -3.623000000
H    -3.155000000    -0.896000000    -3.438000000
H    -3.049000000     0.392000000    -4.226000000
O    -2.565000000     1.836000000    -5.452000000
H    -2.578000000     2.353000000    -4.646000000
H    -2.175000000     2.419000000    -6.104000000
O    -3.272000000     5.945000000    -3.089000000
H    -3.469000000     6.446000000    -2.297000000
H    -3.283000000     5.031000000    -2.802000000
O    -5.617000000     3.350000000    -3.439000000
H    -4.853000000     3.265000000    -2.868000000
H    -5.251000000     3.418000000    -4.320000000
O    -5.142000000     6.924000000    -5.002000000
H    -4.304000000     6.615000000    -4.659000000
H    -5.035000000     7.872000000    -5.079000000
O    -1.202000000     7.724000000    -4.085000000
H    -1.638000000     6.997000000    -3.640000000
H    -1.051000000     7.403000000    -4.974000000
O    -2.569000000     5.022000000    -5.795000000
H    -2.948000000     4.329000000    -6.336000000
H    -2.598000000     4.672000000    -4.904000000
O    -5.423000000    -0.838000000    -5.314000000
H    -5.829000000    -1.598000000    -4.898000000
H    -4.613000000    -0.699000000    -4.822000000
O    -6.965000000     4.620000000     1.325000000
H    -6.731000000     3.721000000     1.094000000
H    -7.830000000     4.546000000     1.727000000
O    -5.012000000     2.571000000    -6.591000000
H    -4.789000000     2.798000000    -7.494000000
H    -4.385000000     1.888000000    -6.354000000
O    -5.292000000     0.032000000    -0.924000000
H    -4.729000000     0.438000000    -1.584000000
H    -5.431000000     0.720000000    -0.273000000
