218
-1485.72674
C    -4.356000000    -1.493000000     2.579000000
H    -4.061000000    -1.340000000     3.614000000
C    -3.665000000    -2.386000000     1.784000000
C    -4.134000000    -2.646000000     0.468000000
H    -3.560000000    -3.295000000    -0.189000000
C    -2.323000000    -2.947000000     2.124000000
O    -2.129000000    -2.827000000     3.564000000
H    -1.591000000    -2.308000000     1.608000000
O    -2.061000000    -4.267000000     1.580000000
C    -0.858000000    -4.653000000     1.128000000
C    -0.808000000    -4.683000000    -0.227000000
H    -1.695000000    -4.725000000    -0.853000000
C     0.430000000    -4.608000000    -0.916000000
O     0.330000000    -4.380000000    -2.226000000
C     1.622000000    -4.550000000    -0.115000000
C     2.988000000    -4.607000000    -0.773000000
H     3.733000000    -5.153000000    -0.191000000
C     3.589000000    -3.255000000    -1.053000000
C     4.450000000    -2.569000000    -0.179000000
H     4.811000000    -3.017000000     0.743000000
H     2.917000000    -5.177000000    -1.702000000
C     1.546000000    -4.692000000     1.231000000
H     2.448000000    -4.865000000     1.812000000
C     0.296000000    -4.596000000     1.857000000
C     0.332000000    -4.523000000     3.391000000
H     1.308000000    -4.911000000     3.691000000
H    -0.347000000    -5.237000000     3.861000000
C     0.265000000    -3.028000000     3.839000000
C     1.443000000    -2.335000000     4.276000000
H     2.429000000    -2.787000000     4.349000000
C    -0.939000000    -2.354000000     3.937000000
C    -1.044000000    -1.020000000     4.353000000
H    -2.008000000    -0.518000000     4.354000000
C     0.115000000    -0.306000000     4.628000000
O     0.079000000     1.041000000     4.783000000
C     0.434000000     1.940000000     3.697000000
C    -0.525000000     3.031000000     3.486000000
C    -0.447000000     3.894000000     2.441000000
H     0.385000000     3.832000000     1.745000000
C    -1.715000000     3.048000000     4.247000000
H    -2.006000000     2.370000000     5.045000000
O     1.832000000     2.443000000     3.849000000
H     0.505000000     1.263000000     2.833000000
C     1.348000000    -0.971000000     4.616000000
C     2.657000000    -0.273000000     4.887000000
H     3.377000000    -1.005000000     5.258000000
H     2.567000000     0.466000000     5.686000000
C     3.139000000     0.371000000     3.628000000
C     4.008000000    -0.353000000     2.797000000
H     4.328000000    -1.348000000     3.095000000
C     2.744000000     1.682000000     3.214000000
C     3.345000000     2.294000000     2.165000000
H     3.086000000     3.313000000     1.889000000
C     4.185000000     1.585000000     1.280000000
O     4.604000000     2.251000000     0.196000000
C     3.926000000     1.810000000    -1.068000000
C     3.612000000     2.938000000    -2.020000000
C     3.318000000     4.195000000    -1.513000000
H     3.458000000     4.477000000    -0.473000000
C     3.380000000     2.599000000    -3.351000000
H     3.443000000     1.566000000    -3.685000000
O     4.685000000     0.724000000    -1.651000000
H     2.906000000     1.459000000    -0.853000000
C     4.457000000     0.261000000     1.589000000
C     5.437000000    -0.541000000     0.703000000
H     5.978000000    -1.268000000     1.312000000
H     6.218000000     0.110000000     0.304000000
C     4.782000000    -1.242000000    -0.398000000
C     4.282000000    -0.557000000    -1.506000000
C     3.508000000    -1.242000000    -2.454000000
H     3.066000000    -0.773000000    -3.329000000
C     3.131000000    -2.581000000    -2.185000000
O     2.146000000    -3.091000000    -3.036000000
C     0.753000000    -3.112000000    -2.830000000
H     0.625000000    -2.291000000    -2.110000000
C     0.008000000    -2.809000000    -4.124000000
C    -1.317000000    -3.158000000    -4.208000000
H    -1.751000000    -3.772000000    -3.423000000
C     0.586000000    -2.007000000    -5.065000000
H     1.601000000    -1.684000000    -4.851000000
C    -0.226000000    -1.352000000    -6.049000000
O     0.237000000    -0.373000000    -6.833000000
C    -1.596000000    -1.686000000    -6.094000000
H    -2.301000000    -1.158000000    -6.732000000
C    -2.137000000    -2.591000000    -5.200000000
O    -3.513000000    -2.819000000    -5.265000000
C    -4.198000000    -3.427000000    -4.221000000
C    -4.869000000    -2.600000000    -3.290000000
H    -4.952000000    -1.522000000    -3.401000000
C    -4.075000000    -4.812000000    -3.988000000
H    -3.532000000    -5.392000000    -4.730000000
C    -4.796000000    -5.377000000    -2.888000000
H    -4.850000000    -6.441000000    -2.675000000
C    -5.378000000    -4.545000000    -1.943000000
H    -5.948000000    -5.037000000    -1.159000000
C    -5.350000000    -3.165000000    -2.138000000
O    -5.966000000    -2.378000000    -1.174000000
C    -5.297000000    -2.039000000     0.004000000
C    -5.978000000    -1.163000000     0.854000000
H    -6.955000000    -0.737000000     0.642000000
C    -5.531000000    -0.863000000     2.130000000
O    -6.222000000     0.062000000     2.871000000
C    -5.802000000     0.787000000     3.959000000
C    -4.952000000     1.868000000     3.742000000
H    -4.735000000     2.130000000     2.710000000
C    -6.508000000     0.605000000     5.157000000
H    -7.217000000    -0.181000000     5.400000000
C    -6.109000000     1.467000000     6.256000000
H    -6.508000000     1.363000000     7.262000000
C    -5.109000000     2.427000000     6.076000000
H    -5.032000000     3.046000000     6.966000000
C    -4.563000000     2.693000000     4.789000000
O    -3.931000000     3.937000000     4.579000000
C    -2.782000000     3.901000000     3.843000000
C    -2.596000000     4.762000000     2.817000000
H    -3.442000000     5.323000000     2.429000000
C    -1.472000000     4.815000000     2.116000000
O    -1.361000000     5.746000000     1.071000000
C    -0.110000000     6.287000000     0.844000000
C     0.550000000     5.907000000    -0.266000000
H     0.059000000     5.172000000    -0.899000000
C     0.303000000     7.390000000     1.640000000
H    -0.411000000     7.788000000     2.357000000
C     1.482000000     8.109000000     1.305000000
H     1.691000000     8.980000000     1.920000000
C     2.193000000     7.678000000     0.121000000
H     2.997000000     8.311000000    -0.245000000
C     1.736000000     6.587000000    -0.662000000
O     2.374000000     6.436000000    -1.917000000
C     2.750000000     5.156000000    -2.373000000
C     2.786000000     4.927000000    -3.770000000
H     2.445000000     5.670000000    -4.486000000
C     3.002000000     3.633000000    -4.209000000
O     3.016000000     3.463000000    -5.561000000
C     2.863000000     2.225000000    -6.177000000
C     3.930000000     1.621000000    -6.803000000
H     4.854000000     2.164000000    -6.987000000
C     3.773000000     0.370000000    -7.379000000
H     4.600000000    -0.120000000    -7.886000000
C     2.536000000    -0.280000000    -7.312000000
H     2.570000000    -1.233000000    -7.833000000
C     1.500000000     0.258000000    -6.649000000
C     1.634000000     1.545000000    -6.114000000
H     0.818000000     1.896000000    -5.489000000
C    -0.689000000     1.691000000    -1.512000000
H    -0.371000000     2.266000000    -2.378000000
C     0.176000000     0.732000000    -1.021000000
H     1.154000000     0.483000000    -1.426000000
C    -0.047000000     0.167000000     0.214000000
C     0.789000000    -1.023000000     0.552000000
H     1.830000000    -0.925000000     0.239000000
H     0.807000000    -1.088000000     1.642000000
H     0.336000000    -1.943000000     0.177000000
C    -1.151000000     0.568000000     0.963000000
H    -1.393000000     0.082000000     1.904000000
C    -1.946000000     1.603000000     0.501000000
H    -2.751000000     1.931000000     1.153000000
C    -1.797000000     2.120000000    -0.779000000
C    -2.642000000     3.202000000    -1.463000000
O    -3.522000000     3.762000000    -0.829000000
O    -2.450000000     3.544000000    -2.586000000
O    -5.620000000     3.068000000     0.237000000
H    -4.913000000     3.386000000    -0.325000000
H    -5.788000000     2.177000000    -0.071000000
O    -4.478000000     9.393000000    -0.536000000
H    -3.823000000     8.767000000    -0.844000000
H    -5.056000000     9.525000000    -1.287000000
O    -4.635000000     7.831000000     1.853000000
H    -4.702000000     8.425000000     1.105000000
H    -5.227000000     7.110000000     1.641000000
O    -0.922000000     7.370000000    -6.069000000
H    -1.449000000     6.575000000    -5.996000000
H    -0.765000000     7.637000000    -5.163000000
O    -3.311000000     6.609000000    -0.897000000
H    -3.121000000     5.730000000    -1.225000000
H    -3.213000000     6.537000000     0.052000000
O    -6.154000000     5.523000000     1.122000000
H    -6.045000000     4.613000000     0.846000000
H    -6.733000000     5.476000000     1.882000000
O    -3.694000000     0.646000000    -2.833000000
H    -3.056000000     0.510000000    -2.133000000
H    -3.174000000     0.961000000    -3.573000000
O    -4.321000000     4.925000000    -3.772000000
H    -4.806000000     5.588000000    -3.280000000
H    -3.751000000     4.514000000    -3.122000000
O    -3.160000000     5.586000000    -6.299000000
H    -3.691000000     6.279000000    -6.693000000
H    -3.556000000     5.441000000    -5.440000000
O    -0.282000000     7.702000000    -3.377000000
H    -0.861000000     6.940000000    -3.406000000
H     0.500000000     7.391000000    -2.921000000
O    -6.261000000     0.654000000    -1.439000000
H    -6.404000000    -0.280000000    -1.284000000
H    -5.508000000     0.687000000    -2.028000000
O    -8.012000000     4.003000000    -3.567000000
H    -7.795000000     4.363000000    -4.427000000
H    -7.173000000     3.711000000    -3.210000000
O    -5.899000000     6.433000000    -2.206000000
H    -5.113000000     6.634000000    -1.698000000
H    -6.548000000     6.177000000    -1.551000000
O    -1.163000000     5.254000000    -3.953000000
H    -1.038000000     4.837000000    -4.805000000
H    -1.533000000     4.566000000    -3.401000000
O    -4.232000000     1.940000000    -6.922000000
H    -4.143000000     2.714000000    -7.478000000
H    -3.734000000     2.153000000    -6.133000000
O    -2.562000000     2.208000000    -4.901000000
H    -2.520000000     2.787000000    -4.140000000
H    -1.789000000     2.436000000    -5.418000000
O    -8.729000000     1.407000000    -2.562000000
H    -7.874000000     1.234000000    -2.167000000
H    -8.685000000     2.323000000    -2.836000000
O    -5.605000000     2.471000000    -3.824000000
H    -5.043000000     3.243000000    -3.883000000
H    -4.996000000     1.738000000    -3.728000000
O    -0.698000000     3.902000000    -6.316000000
H     0.157000000     4.303000000    -6.474000000
H    -1.317000000     4.470000000    -6.773000000
