218
-1462.22641
C    -3.691000000    -2.610000000     1.789000000
H    -3.428000000    -2.321000000     2.804000000
C    -2.834000000    -3.464000000     1.136000000
C    -3.346000000    -4.008000000    -0.047000000
H    -2.654000000    -4.681000000    -0.547000000
C    -1.403000000    -3.677000000     1.652000000
O    -1.299000000    -3.737000000     3.102000000
H    -0.800000000    -2.824000000     1.308000000
O    -0.737000000    -4.795000000     1.027000000
C     0.551000000    -4.710000000     0.602000000
C     0.753000000    -4.604000000    -0.758000000
H    -0.047000000    -4.559000000    -1.493000000
C     2.000000000    -4.318000000    -1.292000000
O     2.124000000    -4.071000000    -2.660000000
C     3.026000000    -4.010000000    -0.468000000
C     4.287000000    -3.396000000    -0.969000000
H     5.001000000    -3.666000000    -0.189000000
C     4.322000000    -1.901000000    -1.203000000
C     4.851000000    -1.100000000    -0.222000000
H     5.144000000    -1.568000000     0.714000000
H     4.653000000    -3.944000000    -1.840000000
C     2.880000000    -4.110000000     0.896000000
H     3.646000000    -3.888000000     1.635000000
C     1.624000000    -4.475000000     1.404000000
C     1.479000000    -4.564000000     2.963000000
H     2.403000000    -4.915000000     3.428000000
H     0.778000000    -5.389000000     3.101000000
C     1.002000000    -3.279000000     3.503000000
C     2.006000000    -2.315000000     3.929000000
H     3.070000000    -2.534000000     3.950000000
C    -0.304000000    -2.944000000     3.634000000
C    -0.730000000    -1.778000000     4.160000000
H    -1.783000000    -1.548000000     4.305000000
C     0.206000000    -0.879000000     4.583000000
O    -0.259000000     0.424000000     4.908000000
C    -0.137000000     1.527000000     3.955000000
C    -1.432000000     2.413000000     3.893000000
C    -1.383000000     3.635000000     3.255000000
H    -0.429000000     3.925000000     2.823000000
C    -2.669000000     2.010000000     4.405000000
H    -2.658000000     1.031000000     4.877000000
O     1.056000000     2.314000000     4.254000000
H     0.069000000     0.961000000     3.035000000
C     1.560000000    -1.098000000     4.415000000
C     2.560000000    -0.096000000     4.830000000
H     3.493000000    -0.582000000     5.123000000
H     2.287000000     0.490000000     5.711000000
C     2.978000000     0.884000000     3.753000000
C     4.011000000     0.642000000     2.848000000
H     4.545000000    -0.304000000     2.869000000
C     2.193000000     2.050000000     3.518000000
C     2.439000000     2.938000000     2.415000000
H     1.825000000     3.827000000     2.294000000
C     3.516000000     2.667000000     1.591000000
O     3.597000000     3.423000000     0.441000000
C     3.237000000     2.906000000    -0.919000000
C     2.497000000     3.951000000    -1.723000000
C     1.793000000     4.987000000    -1.033000000
H     1.815000000     4.965000000     0.054000000
C     2.389000000     3.854000000    -3.103000000
H     2.958000000     3.113000000    -3.659000000
O     4.409000000     2.332000000    -1.643000000
H     2.487000000     2.120000000    -0.750000000
C     4.288000000     1.501000000     1.781000000
C     5.372000000     1.086000000     0.796000000
H     6.136000000     0.515000000     1.328000000
H     5.887000000     1.980000000     0.438000000
C     4.830000000     0.296000000    -0.343000000
C     4.477000000     0.923000000    -1.531000000
C     3.866000000     0.126000000    -2.500000000
H     3.361000000     0.500000000    -3.387000000
C     3.770000000    -1.294000000    -2.332000000
O     3.144000000    -1.964000000    -3.267000000
C     1.912000000    -2.645000000    -3.040000000
H     1.506000000    -2.170000000    -2.134000000
C     0.927000000    -2.391000000    -4.219000000
C    -0.078000000    -3.313000000    -4.479000000
H    -0.021000000    -4.338000000    -4.122000000
C     0.769000000    -1.089000000    -4.685000000
H     1.509000000    -0.360000000    -4.364000000
C    -0.345000000    -0.713000000    -5.452000000
O    -0.516000000     0.608000000    -5.786000000
C    -1.259000000    -1.619000000    -5.733000000
H    -2.195000000    -1.368000000    -6.225000000
C    -1.129000000    -2.920000000    -5.346000000
O    -2.054000000    -3.878000000    -5.756000000
C    -2.605000000    -4.604000000    -4.757000000
C    -3.416000000    -3.850000000    -3.876000000
H    -3.670000000    -2.815000000    -4.090000000
C    -2.501000000    -5.991000000    -4.537000000
H    -1.882000000    -6.542000000    -5.240000000
C    -3.191000000    -6.599000000    -3.502000000
H    -3.128000000    -7.673000000    -3.345000000
C    -4.118000000    -5.870000000    -2.723000000
H    -4.704000000    -6.422000000    -1.993000000
C    -4.127000000    -4.518000000    -2.901000000
O    -4.941000000    -3.764000000    -2.065000000
C    -4.552000000    -3.576000000    -0.713000000
C    -5.424000000    -2.756000000    -0.009000000
H    -6.281000000    -2.429000000    -0.591000000
C    -4.992000000    -2.333000000     1.325000000
O    -5.838000000    -1.411000000     1.957000000
C    -5.671000000    -0.878000000     3.216000000
C    -5.148000000     0.347000000     3.373000000
H    -4.915000000     0.934000000     2.489000000
C    -6.137000000    -1.659000000     4.282000000
H    -6.311000000    -2.714000000     4.083000000
C    -6.106000000    -1.114000000     5.537000000
H    -6.327000000    -1.762000000     6.382000000
C    -5.803000000     0.197000000     5.734000000
H    -5.738000000     0.650000000     6.720000000
C    -5.334000000     0.968000000     4.662000000
O    -4.985000000     2.301000000     4.802000000
C    -3.758000000     2.789000000     4.338000000
C    -3.759000000     4.036000000     3.778000000
H    -4.649000000     4.660000000     3.791000000
C    -2.537000000     4.447000000     3.267000000
O    -2.623000000     5.672000000     2.663000000
C    -1.536000000     6.332000000     2.148000000
C    -1.204000000     6.324000000     0.777000000
H    -1.832000000     5.689000000     0.158000000
C    -0.633000000     7.032000000     2.964000000
H    -0.718000000     7.184000000     4.037000000
C     0.519000000     7.661000000     2.405000000
H     1.204000000     8.263000000     2.997000000
C     0.784000000     7.578000000     1.058000000
H     1.705000000     8.027000000     0.694000000
C    -0.040000000     6.818000000     0.255000000
O     0.176000000     6.732000000    -1.109000000
C     0.940000000     5.852000000    -1.760000000
C     1.025000000     5.858000000    -3.109000000
H     0.473000000     6.675000000    -3.568000000
C     1.706000000     4.858000000    -3.833000000
O     1.633000000     4.857000000    -5.246000000
C     1.468000000     3.665000000    -5.897000000
C     2.260000000     3.460000000    -6.982000000
H     2.880000000     4.291000000    -7.310000000
C     2.192000000     2.241000000    -7.620000000
H     2.896000000     2.119000000    -8.439000000
C     1.350000000     1.213000000    -7.157000000
H     1.364000000     0.178000000    -7.491000000
C     0.491000000     1.485000000    -6.094000000
C     0.570000000     2.699000000    -5.406000000
H    -0.120000000     2.981000000    -4.615000000
C    -0.936000000     1.791000000    -1.174000000
H    -0.767000000     2.579000000    -1.903000000
C     0.134000000     1.007000000    -0.817000000
H     1.045000000     1.030000000    -1.409000000
C    -0.033000000    -0.008000000     0.112000000
C     1.066000000    -0.904000000     0.634000000
H     1.319000000    -1.800000000     0.064000000
H     2.005000000    -0.348000000     0.643000000
H     0.810000000    -1.141000000     1.669000000
C    -1.298000000    -0.251000000     0.664000000
H    -1.446000000    -0.997000000     1.440000000
C    -2.364000000     0.614000000     0.351000000
H    -3.311000000     0.509000000     0.874000000
C    -2.153000000     1.692000000    -0.552000000
C    -3.397000000     2.436000000    -1.022000000
O    -4.485000000     2.379000000    -0.414000000
O    -3.308000000     3.257000000    -1.964000000
O    -2.690000000     5.730000000    -6.192000000
H    -2.348000000     4.893000000    -5.879000000
H    -2.031000000     6.372000000    -5.928000000
O    -6.370000000     7.305000000    -3.246000000
H    -6.495000000     6.486000000    -2.766000000
H    -5.907000000     7.048000000    -4.043000000
O    -1.927000000    -0.990000000    -2.446000000
H    -2.144000000    -0.867000000    -1.522000000
H    -1.209000000    -0.378000000    -2.608000000
O    -7.887000000     3.141000000    -5.674000000
H    -7.330000000     3.707000000    -5.140000000
H    -7.287000000     2.493000000    -6.042000000
O    -6.775000000     3.599000000    -0.105000000
H    -5.854000000     3.344000000    -0.068000000
H    -7.044000000     3.657000000     0.812000000
O    -6.111000000     0.206000000    -1.068000000
H    -5.578000000     0.999000000    -1.130000000
H    -5.645000000    -0.348000000    -0.443000000
O    -2.629000000     3.209000000    -4.519000000
H    -2.891000000     3.249000000    -3.599000000
H    -2.541000000     2.274000000    -4.702000000
O    -8.147000000    -1.288000000    -2.901000000
H    -7.693000000    -0.897000000    -3.648000000
H    -8.350000000    -0.547000000    -2.330000000
O    -8.561000000     0.439000000     2.546000000
H    -7.814000000    -0.130000000     2.357000000
H    -9.196000000     0.237000000     1.859000000
O    -7.488000000     4.060000000    -2.599000000
H    -7.381000000     4.089000000    -1.648000000
H    -6.995000000     3.287000000    -2.872000000
O    -6.893000000     3.490000000     2.583000000
H    -6.466000000     2.981000000     3.271000000
H    -7.097000000     4.329000000     2.997000000
O    -4.305000000     5.735000000    -1.283000000
H    -4.852000000     5.572000000    -0.514000000
H    -4.071000000     4.862000000    -1.599000000
O    -3.686000000     8.259000000     0.075000000
H    -3.874000000     7.367000000    -0.216000000
H    -3.106000000     8.614000000    -0.599000000
O    -2.294000000     6.658000000    -2.996000000
H    -1.865000000     5.827000000    -3.201000000
H    -3.093000000     6.407000000    -2.533000000
O    -8.759000000     1.200000000    -1.020000000
H    -8.594000000     1.671000000    -1.836000000
H    -7.905000000     0.843000000    -0.773000000
O    -3.853000000     0.238000000    -3.917000000
H    -3.273000000    -0.320000000    -3.400000000
H    -4.374000000    -0.374000000    -4.436000000
O    -5.580000000     2.373000000    -3.483000000
H    -5.164000000     1.569000000    -3.794000000
H    -5.018000000     2.672000000    -2.769000000
O    -5.147000000     5.229000000    -4.949000000
H    -4.269000000     5.455000000    -5.257000000
H    -5.079000000     4.311000000    -4.686000000
O    -9.379000000     3.015000000     0.778000000
H    -8.678000000     3.281000000     1.373000000
H    -9.023000000     2.258000000     0.311000000
