218
-1456.21631
C    -4.588000000    -0.707000000     1.869000000
H    -4.204000000    -0.150000000     2.721000000
C    -3.981000000    -1.879000000     1.379000000
C    -4.450000000    -2.545000000     0.241000000
H    -3.966000000    -3.452000000    -0.112000000
C    -2.725000000    -2.406000000     2.061000000
O    -2.730000000    -2.286000000     3.465000000
H    -1.871000000    -1.830000000     1.676000000
O    -2.499000000    -3.803000000     1.702000000
C    -1.253000000    -4.196000000     1.361000000
C    -1.010000000    -4.350000000     0.030000000
H    -1.783000000    -4.281000000    -0.731000000
C     0.290000000    -4.474000000    -0.437000000
O     0.444000000    -4.568000000    -1.826000000
C     1.354000000    -4.518000000     0.426000000
C     2.768000000    -4.925000000     0.012000000
H     3.219000000    -5.451000000     0.855000000
C     3.527000000    -3.662000000    -0.458000000
C     4.197000000    -2.913000000     0.506000000
H     4.115000000    -3.134000000     1.568000000
H     2.761000000    -5.706000000    -0.752000000
C     1.082000000    -4.472000000     1.814000000
H     1.927000000    -4.703000000     2.458000000
C    -0.186000000    -4.197000000     2.294000000
C    -0.461000000    -4.133000000     3.804000000
H     0.364000000    -4.601000000     4.345000000
H    -1.384000000    -4.672000000     4.025000000
C    -0.501000000    -2.667000000     4.237000000
C     0.696000000    -2.180000000     4.716000000
H     1.583000000    -2.784000000     4.890000000
C    -1.582000000    -1.835000000     3.985000000
C    -1.522000000    -0.458000000     4.395000000
H    -2.447000000     0.075000000     4.187000000
C    -0.367000000     0.096000000     4.900000000
O    -0.320000000     1.472000000     4.953000000
C     0.165000000     2.177000000     3.813000000
C    -0.723000000     3.310000000     3.415000000
C    -0.086000000     4.401000000     2.724000000
H     0.968000000     4.391000000     2.459000000
C    -2.119000000     3.357000000     3.681000000
H    -2.577000000     2.531000000     4.220000000
O     1.490000000     2.529000000     4.067000000
H     0.195000000     1.442000000     2.994000000
C     0.773000000    -0.744000000     4.951000000
C     2.097000000    -0.094000000     5.258000000
H     2.799000000    -0.849000000     5.617000000
H     2.019000000     0.689000000     6.015000000
C     2.732000000     0.500000000     3.989000000
C     3.723000000    -0.320000000     3.334000000
H     3.931000000    -1.337000000     3.658000000
C     2.388000000     1.730000000     3.441000000
C     2.855000000     2.167000000     2.172000000
H     2.608000000     3.104000000     1.680000000
C     3.752000000     1.333000000     1.487000000
O     4.238000000     1.758000000     0.303000000
C     3.814000000     1.208000000    -0.935000000
C     3.611000000     2.239000000    -1.967000000
C     3.104000000     3.452000000    -1.569000000
H     2.842000000     3.563000000    -0.520000000
C     3.876000000     2.023000000    -3.339000000
H     4.244000000     1.062000000    -3.691000000
O     4.813000000     0.240000000    -1.295000000
H     2.849000000     0.683000000    -0.879000000
C     4.158000000     0.082000000     2.036000000
C     5.215000000    -0.840000000     1.374000000
H     5.575000000    -1.605000000     2.065000000
H     6.072000000    -0.257000000     1.031000000
C     4.621000000    -1.625000000     0.222000000
C     4.603000000    -1.104000000    -1.071000000
C     3.907000000    -1.890000000    -2.061000000
H     3.756000000    -1.348000000    -2.991000000
C     3.271000000    -3.076000000    -1.721000000
O     2.406000000    -3.556000000    -2.647000000
C     1.015000000    -3.393000000    -2.409000000
H     0.933000000    -2.530000000    -1.732000000
C     0.287000000    -2.840000000    -3.683000000
C    -1.084000000    -2.910000000    -3.802000000
H    -1.755000000    -3.401000000    -3.102000000
C     1.044000000    -2.320000000    -4.702000000
H     2.130000000    -2.330000000    -4.659000000
C     0.428000000    -1.739000000    -5.843000000
O     1.036000000    -1.045000000    -6.840000000
C    -0.953000000    -1.784000000    -5.852000000
H    -1.406000000    -1.438000000    -6.778000000
C    -1.742000000    -2.396000000    -4.950000000
O    -3.106000000    -2.307000000    -5.055000000
C    -3.987000000    -3.053000000    -4.273000000
C    -4.645000000    -2.555000000    -3.212000000
H    -4.646000000    -1.484000000    -3.026000000
C    -4.185000000    -4.440000000    -4.509000000
H    -3.576000000    -4.842000000    -5.315000000
C    -5.094000000    -5.222000000    -3.761000000
H    -5.140000000    -6.301000000    -3.885000000
C    -5.809000000    -4.621000000    -2.739000000
H    -6.530000000    -5.221000000    -2.190000000
C    -5.514000000    -3.332000000    -2.374000000
O    -6.234000000    -2.714000000    -1.399000000
C    -5.665000000    -2.162000000    -0.264000000
C    -6.267000000    -1.025000000     0.180000000
H    -7.012000000    -0.673000000    -0.529000000
C    -5.692000000    -0.227000000     1.149000000
O    -6.394000000     0.994000000     1.356000000
C    -6.244000000     1.690000000     2.479000000
C    -5.249000000     2.718000000     2.492000000
H    -4.701000000     3.038000000     1.610000000
C    -7.028000000     1.457000000     3.574000000
H    -7.799000000     0.691000000     3.561000000
C    -6.784000000     2.190000000     4.751000000
H    -7.413000000     1.959000000     5.607000000
C    -5.754000000     3.148000000     4.781000000
H    -5.477000000     3.599000000     5.731000000
C    -5.030000000     3.409000000     3.655000000
O    -4.169000000     4.496000000     3.599000000
C    -2.853000000     4.457000000     3.341000000
C    -2.256000000     5.583000000     2.784000000
H    -2.829000000     6.494000000     2.632000000
C    -0.924000000     5.554000000     2.443000000
O    -0.336000000     6.688000000     1.840000000
C     0.839000000     6.734000000     1.126000000
C     0.991000000     5.989000000    -0.053000000
H     0.161000000     5.406000000    -0.444000000
C     1.865000000     7.544000000     1.639000000
H     1.768000000     7.998000000     2.622000000
C     3.112000000     7.545000000     0.914000000
H     3.923000000     8.139000000     1.328000000
C     3.229000000     6.935000000    -0.349000000
H     4.076000000     7.000000000    -1.027000000
C     2.145000000     6.124000000    -0.824000000
O     2.084000000     5.646000000    -2.115000000
C     2.739000000     4.443000000    -2.472000000
C     2.864000000     4.184000000    -3.846000000
H     2.541000000     4.849000000    -4.643000000
C     3.470000000     2.995000000    -4.311000000
O     3.485000000     2.733000000    -5.571000000
C     3.490000000     1.491000000    -6.054000000
C     4.699000000     0.867000000    -6.269000000
H     5.704000000     1.273000000    -6.180000000
C     4.636000000    -0.510000000    -6.696000000
H     5.564000000    -1.077000000    -6.677000000
C     3.394000000    -1.054000000    -6.942000000
H     3.329000000    -2.137000000    -7.004000000
C     2.218000000    -0.365000000    -6.758000000
C     2.287000000     0.914000000    -6.168000000
H     1.406000000     1.447000000    -5.817000000
C    -0.526000000     2.191000000    -1.588000000
H    -0.219000000     2.657000000    -2.521000000
C     0.035000000     0.967000000    -1.092000000
H     0.761000000     0.504000000    -1.756000000
C    -0.415000000     0.451000000     0.117000000
C     0.079000000    -0.939000000     0.584000000
H     1.072000000    -1.009000000     0.136000000
H     0.169000000    -0.985000000     1.671000000
H    -0.632000000    -1.597000000     0.080000000
C    -1.341000000     1.099000000     0.814000000
H    -1.747000000     0.608000000     1.694000000
C    -1.963000000     2.263000000     0.339000000
H    -2.587000000     2.857000000     1.002000000
C    -1.592000000     2.794000000    -0.868000000
C    -2.215000000     4.107000000    -1.282000000
O    -3.262000000     4.434000000    -0.710000000
O    -1.960000000     4.651000000    -2.354000000
O    -1.618000000     9.257000000     0.822000000
H    -0.778000000     9.705000000     0.721000000
H    -1.460000000     8.374000000     0.488000000
O    -6.138000000     5.292000000    -1.319000000
H    -5.364000000     5.035000000    -0.819000000
H    -5.853000000     5.265000000    -2.233000000
O    -4.758000000     7.422000000     1.367000000
H    -5.503000000     7.568000000     0.785000000
H    -5.151000000     7.289000000     2.230000000
O    -3.239000000     6.914000000    -0.984000000
H    -3.255000000     5.957000000    -0.971000000
H    -3.787000000     7.173000000    -0.244000000
O    -6.589000000     8.156000000    -0.601000000
H    -6.549000000     7.444000000    -1.240000000
H    -5.879000000     8.746000000    -0.854000000
O    -3.044000000     0.353000000    -2.382000000
H    -2.656000000     0.931000000    -3.039000000
H    -2.446000000     0.403000000    -1.636000000
O    -4.217000000     5.348000000    -3.467000000
H    -4.677000000     4.530000000    -3.661000000
H    -3.521000000     5.093000000    -2.862000000
O    -4.919000000     8.240000000    -3.366000000
H    -4.662000000     7.319000000    -3.314000000
H    -4.462000000     8.657000000    -2.636000000
O    -5.209000000     2.174000000    -1.582000000
H    -4.794000000     2.844000000    -1.039000000
H    -4.494000000     1.583000000    -1.820000000
O     1.091000000     5.480000000    -6.343000000
H     0.882000000     6.344000000    -6.699000000
H     0.651000000     5.459000000    -5.493000000
O    -6.262000000     4.174000000    -5.251000000
H    -6.075000000     4.754000000    -5.989000000
H    -7.071000000     4.520000000    -4.874000000
O    -2.783000000     5.840000000    -6.267000000
H    -3.740000000     5.834000000    -6.276000000
H    -2.537000000     6.156000000    -7.136000000
O    -1.819000000     8.209000000    -2.893000000
H    -1.591000000     7.528000000    -3.526000000
H    -2.374000000     7.765000000    -2.253000000
O    -8.314000000     4.734000000     0.201000000
H    -8.463000000     3.829000000    -0.073000000
H    -7.709000000     5.085000000    -0.452000000
O    -0.013000000     5.519000000    -3.891000000
H     0.743000000     5.378000000    -3.321000000
H    -0.765000000     5.249000000    -3.363000000
O    -2.841000000     2.598000000    -4.303000000
H    -2.752000000     3.408000000    -3.800000000
H    -2.175000000     2.666000000    -4.987000000
O    -6.392000000     0.480000000    -3.456000000
H    -6.137000000     1.048000000    -2.729000000
H    -6.088000000     0.940000000    -4.238000000
O    -5.059000000     1.752000000    -5.382000000
H    -5.459000000     2.617000000    -5.298000000
H    -4.142000000     1.888000000    -5.143000000
O    -1.175000000     3.424000000    -6.010000000
H    -0.250000000     3.576000000    -6.201000000
H    -1.532000000     4.297000000    -5.846000000
