218
-1467.35925
C    -3.748000000    -1.696000000     2.454000000
H    -3.329000000    -0.934000000     3.106000000
C    -2.962000000    -2.774000000     2.102000000
C    -3.330000000    -3.624000000     1.055000000
H    -2.674000000    -4.386000000     0.641000000
C    -1.583000000    -2.845000000     2.723000000
O    -1.512000000    -2.373000000     4.141000000
H    -0.926000000    -2.237000000     2.084000000
O    -0.976000000    -4.162000000     2.598000000
C     0.314000000    -4.261000000     2.185000000
C     0.513000000    -4.560000000     0.826000000
H    -0.274000000    -4.972000000     0.199000000
C     1.686000000    -4.278000000     0.175000000
O     1.660000000    -4.426000000    -1.225000000
C     2.782000000    -3.824000000     0.913000000
C     4.151000000    -3.599000000     0.288000000
H     4.927000000    -3.653000000     1.055000000
C     4.339000000    -2.257000000    -0.395000000
C     4.856000000    -1.154000000     0.263000000
H     5.071000000    -1.392000000     1.301000000
H     4.370000000    -4.418000000    -0.400000000
C     2.651000000    -3.667000000     2.280000000
H     3.435000000    -3.191000000     2.865000000
C     1.378000000    -3.814000000     2.917000000
C     1.211000000    -3.422000000     4.402000000
H     2.144000000    -3.569000000     4.950000000
H     0.517000000    -4.073000000     4.938000000
C     0.935000000    -1.955000000     4.532000000
C     1.953000000    -1.055000000     4.586000000
H     2.999000000    -1.340000000     4.513000000
C    -0.409000000    -1.555000000     4.452000000
C    -0.649000000    -0.214000000     4.546000000
H    -1.703000000     0.052000000     4.544000000
C     0.333000000     0.729000000     4.758000000
O    -0.016000000     2.145000000     4.759000000
C    -0.024000000     2.780000000     3.470000000
C    -1.226000000     3.652000000     3.264000000
C    -1.295000000     4.412000000     2.115000000
H    -0.428000000     4.595000000     1.486000000
C    -2.403000000     3.425000000     4.046000000
H    -2.435000000     2.884000000     4.988000000
O     1.200000000     3.473000000     3.422000000
H    -0.055000000     2.066000000     2.634000000
C     1.681000000     0.337000000     4.710000000
C     2.785000000     1.369000000     4.710000000
H     3.718000000     0.951000000     5.095000000
H     2.492000000     2.179000000     5.381000000
C     3.108000000     1.935000000     3.323000000
C     4.188000000     1.492000000     2.616000000
H     4.763000000     0.687000000     3.066000000
C     2.256000000     2.884000000     2.720000000
C     2.498000000     3.356000000     1.499000000
H     1.886000000     4.134000000     1.051000000
C     3.592000000     2.904000000     0.765000000
O     3.573000000     3.200000000    -0.587000000
C     3.133000000     2.179000000    -1.512000000
C     2.277000000     2.887000000    -2.582000000
C     1.768000000     4.223000000    -2.439000000
H     1.999000000     4.798000000    -1.546000000
C     1.791000000     2.188000000    -3.693000000
H     2.045000000     1.152000000    -3.902000000
O     4.329000000     1.498000000    -2.156000000
H     2.506000000     1.534000000    -0.879000000
C     4.429000000     1.865000000     1.305000000
C     5.509000000     1.181000000     0.543000000
H     6.232000000     0.768000000     1.250000000
H     5.951000000     1.901000000    -0.149000000
C     5.070000000     0.072000000    -0.381000000
C     4.577000000     0.234000000    -1.665000000
C     4.063000000    -0.845000000    -2.330000000
H     3.779000000    -0.647000000    -3.361000000
C     3.973000000    -2.114000000    -1.756000000
O     3.288000000    -3.070000000    -2.413000000
C     1.917000000    -3.299000000    -2.097000000
H     1.504000000    -2.442000000    -1.544000000
C     1.074000000    -3.403000000    -3.401000000
C    -0.197000000    -3.885000000    -3.256000000
H    -0.631000000    -4.363000000    -2.382000000
C     1.525000000    -3.023000000    -4.613000000
H     2.482000000    -2.575000000    -4.865000000
C     0.689000000    -3.135000000    -5.760000000
O     1.109000000    -2.584000000    -6.978000000
C    -0.689000000    -3.449000000    -5.608000000
H    -1.461000000    -3.366000000    -6.369000000
C    -1.079000000    -3.860000000    -4.357000000
O    -2.441000000    -4.040000000    -4.112000000
C    -2.966000000    -4.840000000    -3.197000000
C    -3.680000000    -4.204000000    -2.191000000
H    -3.685000000    -3.117000000    -2.161000000
C    -2.977000000    -6.220000000    -3.365000000
H    -2.424000000    -6.653000000    -4.195000000
C    -3.722000000    -7.064000000    -2.461000000
H    -3.796000000    -8.148000000    -2.503000000
C    -4.466000000    -6.400000000    -1.487000000
H    -4.875000000    -7.027000000    -0.699000000
C    -4.448000000    -4.991000000    -1.308000000
O    -5.129000000    -4.435000000    -0.326000000
C    -4.677000000    -3.483000000     0.569000000
C    -5.504000000    -2.404000000     0.996000000
H    -6.531000000    -2.316000000     0.651000000
C    -4.983000000    -1.512000000     1.915000000
O    -5.760000000    -0.370000000     2.291000000
C    -5.629000000     0.373000000     3.387000000
C    -5.428000000     1.744000000     3.270000000
H    -5.159000000     2.233000000     2.337000000
C    -5.716000000    -0.249000000     4.603000000
H    -5.812000000    -1.318000000     4.778000000
C    -5.660000000     0.513000000     5.798000000
H    -5.817000000    -0.062000000     6.707000000
C    -5.257000000     1.871000000     5.764000000
H    -5.044000000     2.409000000     6.684000000
C    -5.310000000     2.517000000     4.496000000
O    -4.755000000     3.784000000     4.418000000
C    -3.638000000     3.922000000     3.643000000
C    -3.650000000     4.667000000     2.491000000
H    -4.607000000     5.046000000     2.142000000
C    -2.474000000     4.948000000     1.770000000
O    -2.600000000     5.718000000     0.621000000
C    -1.639000000     6.378000000    -0.156000000
C    -1.059000000     5.776000000    -1.248000000
H    -1.201000000     4.715000000    -1.438000000
C    -1.328000000     7.695000000     0.244000000
H    -1.668000000     8.131000000     1.180000000
C    -0.566000000     8.475000000    -0.605000000
H    -0.456000000     9.526000000    -0.352000000
C    -0.035000000     7.970000000    -1.769000000
H     0.702000000     8.396000000    -2.445000000
C    -0.222000000     6.587000000    -1.978000000
O     0.310000000     6.083000000    -3.158000000
C     0.916000000     4.843000000    -3.359000000
C     0.539000000     4.105000000    -4.539000000
H    -0.202000000     4.582000000    -5.176000000
C     0.920000000     2.804000000    -4.639000000
O     0.563000000     2.070000000    -5.764000000
C     1.339000000     1.062000000    -6.371000000
C     2.465000000     1.302000000    -7.169000000
H     2.976000000     2.261000000    -7.184000000
C     3.072000000     0.275000000    -7.866000000
H     3.997000000     0.482000000    -8.398000000
C     2.583000000    -0.989000000    -7.866000000
H     3.100000000    -1.782000000    -8.401000000
C     1.502000000    -1.246000000    -7.046000000
C     0.903000000    -0.276000000    -6.278000000
H     0.077000000    -0.527000000    -5.617000000
C    -1.090000000     1.484000000    -1.595000000
H    -0.939000000     1.865000000    -2.602000000
C    -0.023000000     0.821000000    -0.993000000
H     0.851000000     0.512000000    -1.559000000
C    -0.186000000     0.351000000     0.317000000
C     1.038000000    -0.338000000     0.973000000
H     1.852000000     0.376000000     1.114000000
H     0.727000000    -0.782000000     1.921000000
H     1.501000000    -1.116000000     0.363000000
C    -1.353000000     0.499000000     1.046000000
H    -1.419000000     0.049000000     2.033000000
C    -2.390000000     1.208000000     0.466000000
H    -3.281000000     1.399000000     1.059000000
C    -2.227000000     1.805000000    -0.817000000
C    -3.320000000     2.695000000    -1.436000000
O    -4.500000000     2.438000000    -1.144000000
O    -3.046000000     3.403000000    -2.370000000
O    -1.910000000     2.011000000    -7.002000000
H    -2.418000000     1.775000000    -6.226000000
H    -1.056000000     2.273000000    -6.658000000
O    -8.569000000     1.994000000    -5.083000000
H    -7.989000000     2.025000000    -4.322000000
H    -9.268000000     2.615000000    -4.877000000
O    -5.353000000     7.617000000    -1.471000000
H    -4.958000000     6.877000000    -1.934000000
H    -5.508000000     8.270000000    -2.154000000
O    -2.710000000    -0.665000000    -5.706000000
H    -3.475000000    -0.416000000    -6.225000000
H    -2.479000000     0.129000000    -5.224000000
O    -4.647000000     8.346000000     1.181000000
H    -4.072000000     7.595000000     1.040000000
H    -5.087000000     8.472000000     0.341000000
O    -2.133000000    -1.273000000    -1.399000000
H    -1.850000000    -0.435000000    -1.766000000
H    -2.198000000    -1.112000000    -0.457000000
O    -6.245000000     4.134000000     0.092000000
H    -5.586000000     3.791000000    -0.511000000
H    -6.830000000     3.395000000     0.253000000
O    -5.946000000     0.310000000    -1.180000000
H    -5.507000000     1.153000000    -1.072000000
H    -5.467000000    -0.121000000    -1.888000000
O    -3.292000000     2.197000000    -4.737000000
H    -2.997000000     2.624000000    -3.933000000
H    -4.215000000     1.999000000    -4.579000000
O    -7.927000000     2.067000000     0.487000000
H    -7.308000000     1.345000000     0.380000000
H    -8.229000000     2.257000000    -0.401000000
O    -8.997000000     3.354000000    -1.585000000
H    -9.476000000     3.979000000    -1.041000000
H    -8.545000000     3.896000000    -2.231000000
O    -2.911000000     7.883000000    -4.490000000
H    -3.038000000     7.021000000    -4.093000000
H    -2.698000000     7.696000000    -5.405000000
O    -4.161000000     5.575000000    -3.202000000
H    -4.386000000     5.333000000    -4.100000000
H    -3.634000000     4.843000000    -2.882000000
O    -6.112000000     3.966000000    -5.752000000
H    -6.995000000     4.270000000    -5.958000000
H    -6.213000000     3.468000000    -4.941000000
O    -8.163000000     5.325000000    -3.251000000
H    -7.998000000     6.261000000    -3.140000000
H    -8.578000000     5.255000000    -4.111000000
O    -8.266000000    -0.953000000    -2.136000000
H    -7.596000000    -0.466000000    -1.654000000
H    -8.973000000    -1.076000000    -1.503000000
O    -4.296000000    -0.875000000    -3.036000000
H    -3.521000000    -0.812000000    -2.478000000
H    -3.948000000    -0.952000000    -3.924000000
O    -6.396000000     3.002000000    -3.032000000
H    -6.778000000     3.840000000    -2.770000000
H    -5.672000000     2.867000000    -2.421000000
O    -7.175000000     6.571000000     0.972000000
H    -6.644000000     7.166000000     0.442000000
H    -6.854000000     5.698000000     0.747000000
