218
-1455.00858
C    -2.899000000    -2.552000000     3.803000000
H    -2.834000000    -2.012000000     4.744000000
C    -1.796000000    -3.083000000     3.101000000
C    -2.074000000    -4.014000000     2.067000000
H    -1.243000000    -4.480000000     1.544000000
C    -0.362000000    -2.608000000     3.300000000
O    -0.265000000    -2.006000000     4.619000000
H    -0.157000000    -1.901000000     2.482000000
O     0.605000000    -3.629000000     3.228000000
C     1.776000000    -3.376000000     2.563000000
C     1.894000000    -3.963000000     1.336000000
H     1.105000000    -4.621000000     0.980000000
C     2.975000000    -3.648000000     0.505000000
O     2.969000000    -4.053000000    -0.780000000
C     3.956000000    -2.765000000     1.016000000
C     5.127000000    -2.359000000     0.140000000
H     5.946000000    -2.089000000     0.810000000
C     4.804000000    -1.103000000    -0.619000000
C     5.045000000     0.136000000    -0.006000000
H     5.416000000     0.226000000     1.011000000
H     5.443000000    -3.205000000    -0.474000000
C     3.898000000    -2.315000000     2.312000000
H     4.640000000    -1.642000000     2.732000000
C     2.768000000    -2.535000000     3.092000000
C     2.728000000    -1.880000000     4.518000000
H     3.703000000    -1.768000000     4.997000000
H     2.209000000    -2.540000000     5.215000000
C     1.772000000    -0.636000000     4.459000000
C     2.329000000     0.592000000     4.135000000
H     3.406000000     0.733000000     4.166000000
C     0.398000000    -0.766000000     4.634000000
C    -0.401000000     0.340000000     4.464000000
H    -1.486000000     0.319000000     4.387000000
C     0.177000000     1.602000000     4.370000000
O    -0.659000000     2.650000000     4.062000000
C    -0.737000000     3.164000000     2.687000000
C    -2.206000000     3.249000000     2.227000000
C    -2.396000000     3.869000000     0.971000000
H    -1.517000000     4.220000000     0.436000000
C    -3.302000000     2.569000000     2.876000000
H    -3.105000000     2.080000000     3.827000000
O     0.146000000     4.307000000     2.440000000
H    -0.330000000     2.363000000     2.052000000
C     1.538000000     1.709000000     4.104000000
C     2.207000000     3.070000000     4.000000000
H     3.195000000     2.931000000     4.445000000
H     1.588000000     3.862000000     4.427000000
C     2.410000000     3.342000000     2.560000000
C     3.592000000     3.034000000     1.860000000
H     4.392000000     2.456000000     2.316000000
C     1.363000000     3.983000000     1.867000000
C     1.557000000     4.251000000     0.494000000
H     0.713000000     4.740000000     0.013000000
C     2.705000000     3.982000000    -0.183000000
O     2.719000000     4.123000000    -1.551000000
C     2.250000000     2.938000000    -2.299000000
C     1.324000000     3.358000000    -3.483000000
C     0.535000000     4.516000000    -3.443000000
H     0.519000000     5.068000000    -2.507000000
C     1.265000000     2.577000000    -4.713000000
H     1.772000000     1.616000000    -4.690000000
O     3.469000000     2.213000000    -2.656000000
H     1.605000000     2.405000000    -1.585000000
C     3.692000000     3.252000000     0.520000000
C     4.897000000     2.724000000    -0.207000000
H     5.769000000     2.580000000     0.434000000
H     5.155000000     3.345000000    -1.068000000
C     4.632000000     1.293000000    -0.689000000
C     3.859000000     1.137000000    -1.870000000
C     3.594000000    -0.165000000    -2.418000000
H     3.154000000    -0.184000000    -3.411000000
C     4.111000000    -1.251000000    -1.786000000
O     3.733000000    -2.519000000    -2.199000000
C     2.549000000    -3.087000000    -1.692000000
H     1.987000000    -2.302000000    -1.165000000
C     1.539000000    -3.684000000    -2.728000000
C     0.887000000    -4.838000000    -2.509000000
H     1.037000000    -5.441000000    -1.617000000
C     1.115000000    -2.877000000    -3.861000000
H     1.688000000    -1.970000000    -4.039000000
C     0.121000000    -3.280000000    -4.714000000
O    -0.391000000    -2.435000000    -5.696000000
C    -0.635000000    -4.374000000    -4.338000000
H    -1.548000000    -4.623000000    -4.875000000
C    -0.199000000    -5.185000000    -3.290000000
O    -1.012000000    -6.272000000    -3.066000000
C    -1.538000000    -6.624000000    -1.817000000
C    -2.390000000    -5.750000000    -1.165000000
H    -2.648000000    -4.829000000    -1.682000000
C    -1.045000000    -7.767000000    -1.230000000
H    -0.266000000    -8.332000000    -1.734000000
C    -1.451000000    -8.121000000     0.027000000
H    -1.043000000    -8.931000000     0.626000000
C    -2.302000000    -7.213000000     0.712000000
H    -2.536000000    -7.432000000     1.751000000
C    -2.877000000    -6.094000000     0.093000000
O    -3.704000000    -5.191000000     0.721000000
C    -3.396000000    -4.298000000     1.682000000
C    -4.469000000    -3.765000000     2.448000000
H    -5.482000000    -4.132000000     2.304000000
C    -4.197000000    -2.926000000     3.508000000
O    -5.270000000    -2.445000000     4.303000000
C    -5.453000000    -1.148000000     4.630000000
C    -5.576000000    -0.188000000     3.618000000
H    -5.739000000    -0.533000000     2.600000000
C    -5.392000000    -0.803000000     5.978000000
H    -5.286000000    -1.559000000     6.751000000
C    -5.390000000     0.587000000     6.307000000
H    -5.435000000     0.857000000     7.359000000
C    -5.410000000     1.532000000     5.295000000
H    -5.509000000     2.590000000     5.525000000
C    -5.565000000     1.145000000     3.976000000
O    -5.659000000     2.098000000     2.928000000
C    -4.575000000     2.644000000     2.257000000
C    -4.830000000     3.346000000     1.047000000
H    -5.801000000     3.318000000     0.560000000
C    -3.695000000     3.912000000     0.350000000
O    -3.888000000     4.562000000    -0.812000000
C    -3.083000000     5.494000000    -1.341000000
C    -2.610000000     5.268000000    -2.670000000
H    -2.895000000     4.352000000    -3.180000000
C    -2.766000000     6.674000000    -0.679000000
H    -3.093000000     6.976000000     0.313000000
C    -1.833000000     7.526000000    -1.252000000
H    -1.502000000     8.430000000    -0.747000000
C    -1.346000000     7.295000000    -2.500000000
H    -0.633000000     7.950000000    -2.995000000
C    -1.723000000     6.207000000    -3.271000000
O    -1.151000000     5.910000000    -4.465000000
C    -0.332000000     4.790000000    -4.510000000
C    -0.410000000     3.946000000    -5.605000000
H    -1.087000000     4.259000000    -6.396000000
C     0.363000000     2.853000000    -5.799000000
O     0.237000000     2.037000000    -6.857000000
C     0.692000000     0.778000000    -6.889000000
C     1.901000000     0.465000000    -7.483000000
H     2.514000000     1.255000000    -7.908000000
C     2.401000000    -0.809000000    -7.470000000
H     3.385000000    -0.985000000    -7.896000000
C     1.648000000    -1.777000000    -6.858000000
H     1.986000000    -2.805000000    -6.961000000
C     0.383000000    -1.484000000    -6.315000000
C    -0.107000000    -0.159000000    -6.366000000
H    -1.081000000     0.093000000    -5.953000000
C    -2.034000000    -1.517000000    -1.347000000
H    -2.305000000    -2.131000000    -2.202000000
C    -0.713000000    -1.151000000    -1.000000000
H     0.046000000    -1.672000000    -1.577000000
C    -0.412000000    -0.266000000     0.023000000
C     0.993000000     0.097000000     0.473000000
H     1.622000000    -0.788000000     0.357000000
H     1.373000000     0.920000000    -0.135000000
H     1.029000000     0.279000000     1.549000000
C    -1.450000000     0.110000000     0.884000000
H    -1.199000000     0.645000000     1.796000000
C    -2.703000000    -0.313000000     0.673000000
H    -3.408000000    -0.133000000     1.480000000
C    -3.087000000    -1.088000000    -0.458000000
C    -4.466000000    -1.543000000    -0.618000000
O    -5.358000000    -1.009000000     0.009000000
O    -4.755000000    -2.222000000    -1.518000000
O    -5.346000000    -7.472000000    -2.096000000
H    -4.711000000    -7.070000000    -2.689000000
H    -6.189000000    -7.108000000    -2.367000000
O    -3.870000000    -6.085000000    -3.781000000
H    -4.347000000    -5.259000000    -3.859000000
H    -3.033000000    -5.841000000    -3.385000000
O   -10.282000000    -2.030000000    -0.583000000
H    -9.674000000    -1.515000000    -0.052000000
H    -9.821000000    -2.166000000    -1.411000000
O    -7.999000000    -3.601000000     3.108000000
H    -7.953000000    -4.499000000     2.781000000
H    -7.765000000    -3.059000000     2.355000000
O    -4.318000000    -3.494000000    -3.736000000
H    -4.976000000    -3.168000000    -4.350000000
H    -4.611000000    -3.180000000    -2.881000000
O    -2.894000000     1.924000000    -2.578000000
H    -2.926000000     1.516000000    -1.712000000
H    -2.645000000     1.213000000    -3.169000000
O    -8.582000000     0.096000000     2.013000000
H    -8.296000000    -0.804000000     1.859000000
H    -8.108000000     0.613000000     1.362000000
O    -6.770000000    -4.130000000    -1.275000000
H    -6.414000000    -4.859000000    -0.767000000
H    -6.099000000    -3.450000000    -1.220000000
O    -8.540000000    -2.252000000    -2.639000000
H    -8.178000000    -3.055000000    -2.264000000
H    -7.772000000    -1.734000000    -2.881000000
O    -8.828000000     2.021000000     4.012000000
H    -9.276000000     1.377000000     4.560000000
H    -8.403000000     1.501000000     3.330000000
O    -7.620000000    -2.024000000     0.805000000
H    -6.846000000    -1.524000000     0.547000000
H    -7.726000000    -2.676000000     0.113000000
O    -6.359000000    -0.943000000    -3.207000000
H    -5.769000000    -1.405000000    -2.611000000
H    -5.832000000    -0.225000000    -3.557000000
O    -5.920000000    -4.504000000    -6.140000000
H    -4.990000000    -4.722000000    -6.200000000
H    -6.042000000    -3.801000000    -6.779000000
O    -5.309000000    -8.184000000     0.465000000
H    -6.214000000    -8.479000000     0.360000000
H    -5.013000000    -7.997000000    -0.425000000
O    -5.329000000     3.349000000    -3.073000000
H    -4.480000000     2.906000000    -3.040000000
H    -5.232000000     4.095000000    -2.481000000
O    -7.928000000    -6.056000000     1.386000000
H    -7.560000000    -6.798000000     0.907000000
H    -8.786000000    -6.362000000     1.680000000
O    -3.208000000     0.259000000    -4.769000000
H    -2.922000000    -0.359000000    -5.442000000
H    -3.749000000     0.893000000    -5.239000000
O    -9.089000000     2.597000000    -0.915000000
H    -8.433000000     1.912000000    -1.044000000
H    -8.976000000     2.868000000    -0.004000000
O    -7.325000000     0.493000000    -0.775000000
H    -7.547000000     0.171000000    -1.649000000
H    -6.517000000     0.033000000    -0.549000000
