218
-1467.89418
C    -2.812000000    -1.591000000     4.211000000
H    -2.209000000    -0.867000000     4.753000000
C    -2.230000000    -2.614000000     3.458000000
C    -3.028000000    -3.527000000     2.866000000
H    -2.554000000    -4.323000000     2.297000000
C    -0.693000000    -2.665000000     3.168000000
O     0.025000000    -2.175000000     4.369000000
H    -0.488000000    -2.050000000     2.280000000
O    -0.243000000    -4.005000000     2.962000000
C     0.675000000    -4.165000000     1.982000000
C     0.210000000    -4.465000000     0.710000000
H    -0.837000000    -4.705000000     0.540000000
C     1.038000000    -4.459000000    -0.367000000
O     0.485000000    -4.551000000    -1.629000000
C     2.420000000    -4.201000000    -0.182000000
C     3.355000000    -4.104000000    -1.438000000
H     4.365000000    -4.429000000    -1.179000000
C     3.342000000    -2.723000000    -1.997000000
C     4.385000000    -1.837000000    -1.580000000
H     4.980000000    -2.099000000    -0.708000000
H     3.085000000    -4.814000000    -2.223000000
C     2.935000000    -4.023000000     1.099000000
H     3.983000000    -3.757000000     1.206000000
C     2.058000000    -3.934000000     2.179000000
C     2.651000000    -3.446000000     3.446000000
H     3.737000000    -3.521000000     3.524000000
H     2.315000000    -4.169000000     4.192000000
C     2.420000000    -1.935000000     3.713000000
C     3.474000000    -1.048000000     3.259000000
H     4.368000000    -1.410000000     2.757000000
C     1.165000000    -1.392000000     4.133000000
C     1.080000000    -0.029000000     4.232000000
H     0.114000000     0.420000000     4.447000000
C     2.056000000     0.827000000     3.925000000
O     1.864000000     2.172000000     3.984000000
C     1.682000000     2.949000000     2.769000000
C     0.556000000     3.909000000     2.955000000
C     0.452000000     5.115000000     2.261000000
H     1.300000000     5.504000000     1.703000000
C    -0.585000000     3.484000000     3.578000000
H    -0.578000000     2.546000000     4.126000000
O     2.927000000     3.476000000     2.341000000
H     1.253000000     2.299000000     1.993000000
C     3.271000000     0.296000000     3.471000000
C     4.470000000     1.214000000     3.087000000
H     5.360000000     0.582000000     3.070000000
H     4.470000000     2.060000000     3.777000000
C     4.403000000     1.691000000     1.688000000
C     4.970000000     0.936000000     0.660000000
H     5.393000000    -0.052000000     0.825000000
C     3.688000000     2.888000000     1.357000000
C     3.505000000     3.308000000     0.082000000
H     2.975000000     4.235000000    -0.123000000
C     4.100000000     2.563000000    -0.970000000
O     3.746000000     2.930000000    -2.279000000
C     2.874000000     2.034000000    -2.941000000
C     1.703000000     2.723000000    -3.639000000
C     1.049000000     3.767000000    -2.953000000
H     1.283000000     4.018000000    -1.922000000
C     1.165000000     2.293000000    -4.841000000
H     1.573000000     1.386000000    -5.278000000
O     3.538000000     0.993000000    -3.713000000
H     2.329000000     1.595000000    -2.093000000
C     4.819000000     1.331000000    -0.664000000
C     5.504000000     0.444000000    -1.703000000
H     6.410000000    -0.045000000    -1.337000000
H     5.782000000     1.025000000    -2.584000000
C     4.549000000    -0.610000000    -2.189000000
C     3.593000000    -0.254000000    -3.184000000
C     2.581000000    -1.113000000    -3.585000000
H     1.853000000    -0.784000000    -4.322000000
C     2.413000000    -2.348000000    -3.006000000
O     1.277000000    -3.062000000    -3.300000000
C     0.309000000    -3.329000000    -2.288000000
H     0.308000000    -2.479000000    -1.590000000
C    -1.100000000    -3.180000000    -2.864000000
C    -2.217000000    -3.880000000    -2.313000000
H    -2.034000000    -4.504000000    -1.442000000
C    -1.221000000    -2.440000000    -4.049000000
H    -0.331000000    -1.947000000    -4.431000000
C    -2.517000000    -2.263000000    -4.563000000
O    -2.702000000    -1.504000000    -5.709000000
C    -3.626000000    -2.903000000    -4.037000000
H    -4.572000000    -2.800000000    -4.562000000
C    -3.543000000    -3.753000000    -2.890000000
O    -4.583000000    -4.485000000    -2.443000000
C    -4.706000000    -5.181000000    -1.212000000
C    -4.618000000    -4.446000000    -0.067000000
H    -4.589000000    -3.360000000    -0.084000000
C    -4.872000000    -6.582000000    -1.139000000
H    -4.971000000    -7.173000000    -2.046000000
C    -4.935000000    -7.251000000     0.102000000
H    -5.222000000    -8.289000000     0.249000000
C    -5.109000000    -6.463000000     1.261000000
H    -5.275000000    -6.980000000     2.203000000
C    -4.960000000    -5.065000000     1.164000000
O    -5.242000000    -4.316000000     2.265000000
C    -4.438000000    -3.373000000     2.904000000
C    -5.020000000    -2.365000000     3.619000000
H    -6.097000000    -2.222000000     3.588000000
C    -4.213000000    -1.505000000     4.327000000
O    -4.809000000    -0.554000000     5.090000000
C    -4.114000000     0.556000000     5.599000000
C    -3.874000000     1.621000000     4.739000000
H    -4.370000000     1.536000000     3.775000000
C    -3.589000000     0.581000000     6.869000000
H    -3.656000000    -0.273000000     7.538000000
C    -2.836000000     1.634000000     7.274000000
H    -2.417000000     1.746000000     8.271000000
C    -2.611000000     2.675000000     6.364000000
H    -2.087000000     3.559000000     6.717000000
C    -3.078000000     2.707000000     5.100000000
O    -2.809000000     3.839000000     4.275000000
C    -1.702000000     4.220000000     3.568000000
C    -1.698000000     5.491000000     3.121000000
H    -2.615000000     6.060000000     3.249000000
C    -0.636000000     6.000000000     2.359000000
O    -0.562000000     7.225000000     1.737000000
C    -0.341000000     7.294000000     0.368000000
C    -0.807000000     6.196000000    -0.406000000
H    -1.438000000     5.427000000     0.032000000
C     0.402000000     8.299000000    -0.255000000
H     0.742000000     9.127000000     0.363000000
C     0.682000000     8.312000000    -1.635000000
H     1.218000000     9.148000000    -2.077000000
C     0.233000000     7.216000000    -2.368000000
H     0.257000000     7.223000000    -3.454000000
C    -0.492000000     6.121000000    -1.768000000
O    -0.952000000     5.097000000    -2.649000000
C    -0.146000000     4.307000000    -3.404000000
C    -0.616000000     3.930000000    -4.652000000
H    -1.581000000     4.281000000    -5.008000000
C     0.073000000     3.025000000    -5.455000000
O    -0.510000000     2.667000000    -6.711000000
C    -0.729000000     1.316000000    -6.913000000
C     0.108000000     0.680000000    -7.810000000
H     0.886000000     1.192000000    -8.371000000
C     0.110000000    -0.745000000    -7.828000000
H     0.721000000    -1.245000000    -8.575000000
C    -0.711000000    -1.515000000    -7.023000000
H    -0.683000000    -2.599000000    -7.110000000
C    -1.737000000    -0.808000000    -6.380000000
C    -1.754000000     0.593000000    -6.318000000
H    -2.501000000     1.141000000    -5.749000000
C    -1.456000000     1.485000000    -1.497000000
H    -1.849000000     1.732000000    -2.480000000
C    -0.289000000     0.744000000    -1.295000000
H     0.314000000     0.466000000    -2.156000000
C     0.146000000     0.413000000    -0.016000000
C     1.369000000    -0.333000000     0.243000000
H     1.927000000    -0.440000000    -0.689000000
H     2.023000000     0.154000000     0.970000000
H     1.188000000    -1.305000000     0.708000000
C    -0.662000000     0.778000000     1.081000000
H    -0.479000000     0.471000000     2.108000000
C    -1.835000000     1.518000000     0.887000000
H    -2.533000000     1.738000000     1.691000000
C    -2.181000000     1.918000000    -0.446000000
C    -3.484000000     2.668000000    -0.627000000
O    -4.122000000     2.937000000     0.375000000
O    -3.873000000     3.049000000    -1.732000000
O    -4.960000000     3.951000000     2.719000000
H    -4.123000000     3.979000000     3.183000000
H    -4.724000000     3.765000000     1.810000000
O    -6.176000000     1.515000000     1.083000000
H    -5.419000000     2.009000000     0.769000000
H    -6.843000000     2.181000000     1.251000000
O    -6.251000000     0.239000000    -6.329000000
H    -6.341000000    -0.713000000    -6.293000000
H    -6.144000000     0.505000000    -5.416000000
O    -4.255000000     8.750000000    -0.228000000
H    -3.717000000     9.322000000     0.319000000
H    -3.909000000     7.872000000    -0.070000000
O    -8.094000000     3.344000000     0.861000000
H    -8.876000000     3.491000000     0.328000000
H    -8.321000000     3.695000000     1.722000000
O    -3.267000000    -1.141000000    -0.294000000
H    -2.438000000    -0.744000000    -0.029000000
H    -3.453000000    -0.758000000    -1.152000000
O    -5.909000000    -1.224000000     0.733000000
H    -6.032000000    -0.277000000     0.674000000
H    -4.963000000    -1.347000000     0.657000000
O    -7.386000000     3.677000000     3.717000000
H    -6.518000000     3.707000000     3.313000000
H    -7.542000000     4.572000000     4.016000000
O    -7.298000000     0.870000000     3.606000000
H    -7.246000000     1.790000000     3.868000000
H    -6.713000000     0.803000000     2.851000000
O    -8.848000000     0.255000000     0.249000000
H    -9.542000000     0.914000000     0.261000000
H    -8.036000000     0.763000000     0.263000000
O    -5.541000000     2.171000000    -4.178000000
H    -4.905000000     2.883000000    -4.257000000
H    -6.390000000     2.593000000    -4.311000000
O    -8.048000000     3.450000000    -4.040000000
H    -7.925000000     4.384000000    -4.208000000
H    -7.908000000     3.355000000    -3.098000000
O    -3.892000000     0.225000000    -2.654000000
H    -3.745000000    -0.109000000    -3.539000000
H    -4.521000000     0.937000000    -2.768000000
O    -3.827000000     4.491000000    -3.953000000
H    -3.025000000     5.004000000    -3.853000000
H    -3.795000000     3.856000000    -3.238000000
O    -5.492000000     6.764000000    -3.505000000
H    -4.878000000     7.439000000    -3.793000000
H    -5.040000000     5.939000000    -3.680000000
O    -3.002000000     8.024000000    -3.456000000
H    -3.323000000     7.979000000    -2.555000000
H    -2.551000000     8.867000000    -3.508000000
O    -6.615000000     3.319000000    -1.625000000
H    -5.694000000     3.069000000    -1.698000000
H    -6.856000000     3.083000000    -0.729000000
O    -6.647000000     5.839000000    -0.352000000
H    -7.285000000     5.728000000     0.353000000
H    -6.641000000     4.995000000    -0.804000000
O    -4.004000000     5.948000000     0.098000000
H    -4.861000000     6.174000000    -0.262000000
H    -3.954000000     4.995000000     0.017000000
