218
-1463.53798
C    -4.403000000    -1.772000000    -2.320000000
H    -4.124000000    -1.250000000    -3.232000000
C    -4.457000000    -0.998000000    -1.165000000
C    -4.801000000    -1.556000000     0.074000000
H    -4.690000000    -1.035000000     1.021000000
C    -4.108000000     0.482000000    -1.241000000
O    -4.245000000     0.961000000    -2.611000000
H    -3.043000000     0.472000000    -0.965000000
O    -4.832000000     1.213000000    -0.208000000
C    -4.096000000     2.237000000     0.400000000
C    -3.865000000     1.943000000     1.744000000
H    -4.336000000     1.105000000     2.253000000
C    -2.888000000     2.702000000     2.361000000
O    -2.469000000     2.235000000     3.649000000
C    -2.301000000     3.778000000     1.723000000
C    -1.422000000     4.672000000     2.485000000
H    -1.528000000     5.650000000     2.012000000
C     0.030000000     4.220000000     2.497000000
C     0.932000000     4.656000000     1.477000000
H     0.523000000     5.281000000     0.688000000
H    -1.783000000     4.764000000     3.512000000
C    -2.727000000     4.213000000     0.504000000
H    -2.192000000     5.042000000     0.048000000
C    -3.573000000     3.354000000    -0.209000000
C    -3.847000000     3.692000000    -1.647000000
H    -3.905000000     4.777000000    -1.755000000
H    -4.874000000     3.365000000    -1.821000000
C    -2.921000000     3.038000000    -2.645000000
C    -1.737000000     3.672000000    -3.063000000
H    -1.558000000     4.677000000    -2.688000000
C    -3.113000000     1.728000000    -3.082000000
C    -2.140000000     1.084000000    -3.866000000
H    -2.327000000     0.098000000    -4.283000000
C    -0.983000000     1.701000000    -4.358000000
O     0.004000000     1.077000000    -5.017000000
C     1.129000000     0.544000000    -4.264000000
C     1.373000000    -0.945000000    -4.465000000
C     2.642000000    -1.557000000    -4.285000000
H     3.452000000    -0.944000000    -3.898000000
C     0.320000000    -1.776000000    -4.926000000
H    -0.695000000    -1.433000000    -5.109000000
O     2.261000000     1.430000000    -4.450000000
H     0.795000000     0.619000000    -3.218000000
C    -0.748000000     3.007000000    -3.833000000
C     0.593000000     3.740000000    -4.122000000
H     0.425000000     4.819000000    -4.127000000
H     0.956000000     3.532000000    -5.131000000
C     1.677000000     3.361000000    -3.080000000
C     1.929000000     4.105000000    -1.956000000
H     1.351000000     5.016000000    -1.823000000
C     2.495000000     2.276000000    -3.373000000
C     3.358000000     1.728000000    -2.416000000
H     3.850000000     0.765000000    -2.527000000
C     3.538000000     2.490000000    -1.227000000
O     4.402000000     2.020000000    -0.241000000
C     3.873000000     1.422000000     0.989000000
C     4.544000000     0.087000000     1.386000000
C     5.261000000    -0.594000000     0.387000000
H     5.419000000    -0.166000000    -0.600000000
C     4.415000000    -0.421000000     2.642000000
H     3.894000000     0.102000000     3.440000000
O     3.846000000     2.428000000     2.033000000
H     2.839000000     1.168000000     0.713000000
C     2.857000000     3.656000000    -0.979000000
C     3.145000000     4.517000000     0.214000000
H     2.958000000     5.574000000     0.016000000
H     4.177000000     4.503000000     0.570000000
C     2.213000000     4.113000000     1.343000000
C     2.658000000     3.149000000     2.283000000
C     1.772000000     2.808000000     3.369000000
H     2.019000000     2.032000000     4.088000000
C     0.483000000     3.254000000     3.369000000
O    -0.289000000     2.663000000     4.356000000
C    -1.186000000     1.607000000     3.890000000
H    -0.907000000     1.219000000     2.899000000
C    -1.247000000     0.312000000     4.714000000
C    -2.442000000    -0.452000000     4.812000000
H    -3.341000000    -0.058000000     4.344000000
C    -0.127000000    -0.132000000     5.390000000
H     0.811000000     0.416000000     5.358000000
C    -0.106000000    -1.470000000     5.937000000
O     0.988000000    -1.984000000     6.609000000
C    -1.290000000    -2.233000000     5.957000000
H    -1.209000000    -3.249000000     6.335000000
C    -2.504000000    -1.733000000     5.458000000
O    -3.607000000    -2.451000000     5.546000000
C    -4.637000000    -2.282000000     4.624000000
C    -4.593000000    -3.002000000     3.438000000
H    -3.769000000    -3.684000000     3.245000000
C    -5.721000000    -1.436000000     4.890000000
H    -5.767000000    -0.885000000     5.825000000
C    -6.817000000    -1.400000000     4.023000000
H    -7.661000000    -0.731000000     4.175000000
C    -6.778000000    -2.168000000     2.907000000
H    -7.525000000    -2.053000000     2.126000000
C    -5.665000000    -2.949000000     2.505000000
O    -5.466000000    -3.556000000     1.289000000
C    -5.201000000    -2.895000000     0.105000000
C    -5.127000000    -3.666000000    -1.090000000
H    -5.367000000    -4.725000000    -1.029000000
C    -4.862000000    -3.047000000    -2.284000000
O    -4.916000000    -3.826000000    -3.394000000
C    -4.102000000    -3.612000000    -4.495000000
C    -2.726000000    -3.944000000    -4.469000000
H    -2.297000000    -4.546000000    -3.672000000
C    -4.601000000    -3.054000000    -5.656000000
H    -5.676000000    -2.895000000    -5.670000000
C    -3.772000000    -2.688000000    -6.683000000
H    -4.263000000    -2.245000000    -7.546000000
C    -2.375000000    -2.896000000    -6.648000000
H    -1.671000000    -2.518000000    -7.385000000
C    -1.883000000    -3.517000000    -5.489000000
O    -0.589000000    -3.951000000    -5.470000000
C     0.491000000    -3.156000000    -5.052000000
C     1.724000000    -3.671000000    -4.892000000
H     1.853000000    -4.739000000    -5.047000000
C     2.802000000    -2.913000000    -4.413000000
O     3.999000000    -3.465000000    -4.195000000
C     5.051000000    -2.880000000    -3.602000000
C     5.200000000    -2.949000000    -2.244000000
H     4.419000000    -3.398000000    -1.635000000
C     6.086000000    -2.313000000    -4.388000000
H     6.010000000    -2.189000000    -5.465000000
C     7.250000000    -1.805000000    -3.835000000
H     8.081000000    -1.494000000    -4.462000000
C     7.309000000    -1.808000000    -2.380000000
H     8.211000000    -1.436000000    -1.900000000
C     6.318000000    -2.439000000    -1.625000000
O     6.462000000    -2.563000000    -0.283000000
C     5.730000000    -1.883000000     0.644000000
C     5.749000000    -2.289000000     1.969000000
H     6.244000000    -3.208000000     2.273000000
C     5.073000000    -1.611000000     2.984000000
O     5.200000000    -2.004000000     4.289000000
C     4.346000000    -1.631000000     5.295000000
C     4.985000000    -1.043000000     6.384000000
H     6.041000000    -0.791000000     6.319000000
C     4.222000000    -0.608000000     7.455000000
H     4.714000000    -0.042000000     8.242000000
C     2.855000000    -0.824000000     7.543000000
H     2.308000000    -0.442000000     8.401000000
C     2.297000000    -1.654000000     6.568000000
C     3.026000000    -2.006000000     5.443000000
H     2.582000000    -2.715000000     4.748000000
C    -1.319000000    -2.364000000     0.018000000
H    -2.238000000    -2.854000000     0.326000000
C    -1.170000000    -0.979000000     0.213000000
H    -1.985000000    -0.428000000     0.675000000
C    -0.062000000    -0.341000000    -0.309000000
C     0.121000000     1.090000000    -0.271000000
H     0.164000000     1.414000000     0.771000000
H     1.022000000     1.371000000    -0.819000000
H    -0.743000000     1.596000000    -0.706000000
C     0.918000000    -1.120000000    -0.974000000
H     1.680000000    -0.551000000    -1.499000000
C     0.742000000    -2.440000000    -1.179000000
H     1.508000000    -2.968000000    -1.742000000
C    -0.363000000    -3.092000000    -0.720000000
C    -0.506000000    -4.600000000    -0.929000000
O     0.529000000    -5.226000000    -1.294000000
O    -1.512000000    -5.194000000    -0.463000000
O     2.590000000    -8.226000000    -4.107000000
H     1.996000000    -7.519000000    -3.857000000
H     3.210000000    -7.816000000    -4.711000000
O    -3.592000000    -6.771000000    -1.135000000
H    -3.431000000    -6.603000000    -2.063000000
H    -3.047000000    -6.132000000    -0.677000000
O    -6.148000000    -7.994000000    -0.229000000
H    -6.604000000    -7.152000000    -0.228000000
H    -5.222000000    -7.764000000    -0.306000000
O     3.313000000    -6.181000000    -1.490000000
H     2.435000000    -5.816000000    -1.381000000
H     3.512000000    -6.583000000    -0.645000000
O    -2.854000000    -7.054000000    -3.665000000
H    -2.282000000    -7.649000000    -4.150000000
H    -3.563000000    -6.852000000    -4.275000000
O    -2.362000000    -8.915000000     1.925000000
H    -2.354000000    -7.964000000     2.030000000
H    -1.581000000    -9.214000000     2.389000000
O    -1.221000000    -8.341000000    -5.481000000
H    -0.323000000    -8.592000000    -5.694000000
H    -1.752000000    -8.743000000    -6.169000000
O    -2.012000000    -6.011000000     1.951000000
H    -1.188000000    -6.068000000     2.436000000
H    -1.757000000    -5.693000000     1.084000000
O    -1.058000000    -5.994000000    -7.144000000
H    -0.630000000    -5.286000000    -6.662000000
H    -1.256000000    -6.652000000    -6.477000000
O     0.303000000    -7.801000000    -0.218000000
H    -0.028000000    -8.350000000    -0.929000000
H     0.295000000    -6.914000000    -0.576000000
O     0.676000000    -6.509000000    -3.718000000
H     0.560000000    -6.054000000    -2.884000000
H    -0.215000000    -6.703000000    -4.010000000
O     5.050000000    -5.924000000    -3.422000000
H     4.422000000    -6.053000000    -2.712000000
H     5.072000000    -4.976000000    -3.552000000
O     0.430000000    -3.084000000     2.394000000
H     1.306000000    -2.967000000     2.027000000
H    -0.124000000    -2.493000000     1.884000000
O    -6.614000000    -6.941000000    -3.429000000
H    -6.698000000    -7.832000000    -3.768000000
H    -5.676000000    -6.831000000    -3.275000000
O    -0.065000000    -9.833000000     3.311000000
H     0.486000000   -10.582000000     3.537000000
H     0.526000000    -9.227000000     2.864000000
O    -4.755000000    -6.229000000     2.757000000
H    -3.882000000    -6.135000000     2.377000000
H    -5.243000000    -5.474000000     2.428000000
O    -2.312000000    -9.211000000    -0.877000000
H    -2.403000000    -8.277000000    -1.065000000
H    -2.255000000    -9.259000000     0.077000000
O     0.377000000    -5.495000000     3.550000000
H     0.286000000    -4.621000000     3.170000000
H     0.745000000    -5.341000000     4.420000000
O     1.472000000    -7.529000000     2.338000000
H     1.113000000    -7.430000000     1.456000000
H     1.038000000    -6.848000000     2.852000000
