218
-1479.37309
C    -3.703000000    -3.801000000     0.127000000
H    -3.949000000    -3.872000000    -0.929000000
C    -3.697000000    -2.596000000     0.841000000
C    -3.478000000    -2.587000000     2.225000000
H    -3.341000000    -1.652000000     2.762000000
C    -4.079000000    -1.281000000     0.137000000
O    -4.714000000    -1.541000000    -1.068000000
H    -3.162000000    -0.709000000    -0.069000000
O    -4.738000000    -0.344000000     1.009000000
C    -4.236000000     0.959000000     1.079000000
C    -3.456000000     1.384000000     2.173000000
H    -3.277000000     0.635000000     2.940000000
C    -2.841000000     2.646000000     2.264000000
O    -1.999000000     2.851000000     3.368000000
C    -3.080000000     3.576000000     1.248000000
C    -2.414000000     4.901000000     1.311000000
H    -2.995000000     5.656000000     0.777000000
C    -1.031000000     4.851000000     0.691000000
C    -0.786000000     4.961000000    -0.686000000
H    -1.592000000     5.092000000    -1.404000000
H    -2.222000000     5.204000000     2.343000000
C    -3.821000000     3.130000000     0.072000000
H    -3.969000000     3.757000000    -0.803000000
C    -4.367000000     1.851000000     0.010000000
C    -5.260000000     1.356000000    -1.117000000
H    -5.763000000     2.217000000    -1.561000000
H    -6.055000000     0.739000000    -0.694000000
C    -4.415000000     0.585000000    -2.154000000
C    -3.741000000     1.285000000    -3.170000000
H    -3.786000000     2.367000000    -3.267000000
C    -4.264000000    -0.777000000    -2.067000000
C    -3.387000000    -1.462000000    -2.937000000
H    -3.278000000    -2.543000000    -2.888000000
C    -2.636000000    -0.764000000    -3.876000000
O    -1.800000000    -1.559000000    -4.559000000
C    -0.383000000    -1.435000000    -3.995000000
C     0.256000000    -2.827000000    -3.904000000
C     1.628000000    -2.935000000    -3.653000000
H     2.182000000    -2.058000000    -3.328000000
C    -0.462000000    -3.972000000    -3.965000000
H    -1.505000000    -3.947000000    -4.269000000
O     0.384000000    -0.565000000    -4.884000000
H    -0.329000000    -0.888000000    -3.043000000
C    -2.849000000     0.576000000    -3.972000000
C    -2.029000000     1.327000000    -5.034000000
H    -2.514000000     2.261000000    -5.327000000
H    -1.942000000     0.618000000    -5.860000000
C    -0.660000000     1.609000000    -4.442000000
C    -0.532000000     2.879000000    -3.911000000
H    -1.354000000     3.588000000    -3.848000000
C     0.459000000     0.787000000    -4.527000000
C     1.672000000     1.240000000    -3.972000000
H     2.524000000     0.565000000    -3.998000000
C     1.768000000     2.531000000    -3.365000000
O     2.919000000     2.806000000    -2.652000000
C     2.919000000     2.878000000    -1.227000000
C     4.178000000     2.274000000    -0.610000000
C     4.520000000     0.978000000    -1.104000000
H     3.980000000     0.561000000    -1.950000000
C     4.921000000     2.847000000     0.335000000
H     4.744000000     3.879000000     0.629000000
O     2.790000000     4.251000000    -0.854000000
H     2.033000000     2.362000000    -0.829000000
C     0.645000000     3.318000000    -3.253000000
C     0.730000000     4.730000000    -2.702000000
H    -0.001000000     5.352000000    -3.223000000
H     1.679000000     5.212000000    -2.947000000
C     0.483000000     4.820000000    -1.179000000
C     1.562000000     4.542000000    -0.343000000
C     1.310000000     4.384000000     1.022000000
H     2.144000000     4.269000000     1.709000000
C     0.029000000     4.485000000     1.516000000
O    -0.031000000     4.111000000     2.799000000
C    -0.604000000     2.846000000     3.129000000
H    -0.297000000     2.265000000     2.246000000
C     0.084000000     2.216000000     4.249000000
C    -0.496000000     1.202000000     4.977000000
H    -1.510000000     0.896000000     4.732000000
C     1.448000000     2.553000000     4.447000000
H     1.937000000     3.294000000     3.820000000
C     2.161000000     1.870000000     5.443000000
O     3.456000000     2.166000000     5.743000000
C     1.613000000     0.825000000     6.159000000
H     2.232000000     0.289000000     6.875000000
C     0.230000000     0.550000000     6.003000000
O    -0.317000000    -0.439000000     6.823000000
C    -1.437000000    -1.124000000     6.475000000
C    -1.408000000    -2.100000000     5.484000000
H    -0.443000000    -2.317000000     5.034000000
C    -2.614000000    -0.879000000     7.088000000
H    -2.596000000    -0.137000000     7.881000000
C    -3.748000000    -1.597000000     6.761000000
H    -4.691000000    -1.429000000     7.276000000
C    -3.713000000    -2.567000000     5.766000000
H    -4.573000000    -3.140000000     5.430000000
C    -2.555000000    -2.819000000     5.064000000
O    -2.489000000    -3.783000000     4.038000000
C    -2.919000000    -3.769000000     2.762000000
C    -2.905000000    -4.952000000     2.023000000
H    -2.457000000    -5.785000000     2.559000000
C    -3.399000000    -4.974000000     0.766000000
O    -3.408000000    -6.178000000     0.091000000
C    -3.294000000    -6.322000000    -1.287000000
C    -2.066000000    -6.118000000    -1.848000000
H    -1.226000000    -5.935000000    -1.183000000
C    -4.445000000    -6.652000000    -2.063000000
H    -5.420000000    -6.859000000    -1.629000000
C    -4.278000000    -6.820000000    -3.415000000
H    -5.106000000    -6.965000000    -4.104000000
C    -2.978000000    -6.776000000    -4.012000000
H    -2.913000000    -6.932000000    -5.086000000
C    -1.859000000    -6.358000000    -3.222000000
O    -0.628000000    -6.409000000    -3.835000000
C     0.117000000    -5.206000000    -3.822000000
C     1.472000000    -5.355000000    -3.654000000
H     1.796000000    -6.369000000    -3.431000000
C     2.224000000    -4.201000000    -3.548000000
O     3.609000000    -4.420000000    -3.284000000
C     4.452000000    -3.356000000    -3.221000000
C     4.701000000    -2.698000000    -2.052000000
H     4.201000000    -3.062000000    -1.158000000
C     5.152000000    -3.024000000    -4.413000000
H     4.923000000    -3.447000000    -5.388000000
C     5.934000000    -1.904000000    -4.397000000
H     6.537000000    -1.517000000    -5.214000000
C     6.225000000    -1.265000000    -3.160000000
H     6.914000000    -0.426000000    -3.095000000
C     5.584000000    -1.643000000    -1.980000000
O     5.792000000    -1.035000000    -0.758000000
C     5.591000000     0.300000000    -0.532000000
C     6.308000000     0.927000000     0.493000000
H     7.212000000     0.501000000     0.921000000
C     5.902000000     2.128000000     0.965000000
O     6.564000000     2.713000000     2.042000000
C     5.795000000     3.266000000     3.055000000
C     5.979000000     4.554000000     3.509000000
H     6.655000000     5.184000000     2.935000000
C     5.317000000     5.044000000     4.683000000
H     5.353000000     6.070000000     5.040000000
C     4.510000000     4.200000000     5.372000000
H     3.884000000     4.553000000     6.188000000
C     4.389000000     2.920000000     4.986000000
C     5.037000000     2.429000000     3.874000000
H     4.992000000     1.390000000     3.557000000
C     0.491000000    -3.209000000    -0.199000000
H     0.044000000    -4.179000000    -0.402000000
C    -0.261000000    -2.114000000    -0.561000000
H    -1.172000000    -2.264000000    -1.135000000
C     0.208000000    -0.823000000    -0.255000000
C    -0.594000000     0.413000000    -0.665000000
H    -0.855000000     0.991000000     0.224000000
H     0.099000000     1.034000000    -1.236000000
H    -1.509000000     0.193000000    -1.218000000
C     1.418000000    -0.742000000     0.383000000
H     1.781000000     0.233000000     0.698000000
C     2.173000000    -1.849000000     0.784000000
H     3.058000000    -1.651000000     1.383000000
C     1.735000000    -3.140000000     0.469000000
C     2.401000000    -4.417000000     0.905000000
O     3.565000000    -4.301000000     1.222000000
O     1.798000000    -5.480000000     0.946000000
O     2.448000000    -8.759000000     5.530000000
H     1.600000000    -8.390000000     5.777000000
H     3.069000000    -8.043000000     5.664000000
O    -1.145000000    -6.125000000     4.989000000
H    -0.212000000    -6.157000000     4.776000000
H    -1.442000000    -5.286000000     4.636000000
O     7.573000000    -7.892000000     2.143000000
H     7.719000000    -7.005000000     1.816000000
H     8.451000000    -8.231000000     2.317000000
O     0.467000000   -10.057000000    -2.131000000
H     1.063000000    -9.309000000    -2.084000000
H     0.041000000    -9.972000000    -2.984000000
O     3.069000000    -7.602000000     2.115000000
H     2.740000000    -6.917000000     1.533000000
H     2.402000000    -7.677000000     2.798000000
O     4.120000000   -10.034000000     2.705000000
H     4.423000000    -9.832000000     3.590000000
H     3.722000000    -9.221000000     2.396000000
O     6.877000000    -5.462000000    -1.401000000
H     7.455000000    -4.808000000    -1.795000000
H     6.923000000    -5.288000000    -0.461000000
O     7.487000000    -4.353000000     3.414000000
H     6.748000000    -3.745000000     3.450000000
H     7.367000000    -4.827000000     2.592000000
O     4.042000000    -4.401000000     3.969000000
H     4.009000000    -3.471000000     4.195000000
H     3.781000000    -4.433000000     3.049000000
O     2.472000000    -8.261000000    -2.252000000
H     3.075000000    -7.817000000    -1.656000000
H     3.025000000    -8.558000000    -2.975000000
O     1.454000000    -5.877000000     4.007000000
H     2.196000000    -5.478000000     4.462000000
H     1.614000000    -5.694000000     3.082000000
O     5.603000000    -2.218000000     2.175000000
H     5.209000000    -2.543000000     1.366000000
H     6.481000000    -1.936000000     1.918000000
O    -1.740000000    -8.487000000     1.090000000
H    -0.949000000    -8.144000000     0.675000000
H    -2.415000000    -7.836000000     0.893000000
O     4.857000000    -1.833000000     4.863000000
H     5.136000000    -1.860000000     3.948000000
H     5.423000000    -1.176000000     5.268000000
O     4.816000000    -7.198000000     4.257000000
H     4.434000000    -7.271000000     3.383000000
H     4.914000000    -6.257000000     4.398000000
O     5.959000000    -5.393000000     1.184000000
H     5.699000000    -6.314000000     1.158000000
H     5.139000000    -4.910000000     1.093000000
O     0.363000000    -7.236000000    -0.248000000
H     0.689000000    -7.542000000    -1.095000000
H     1.122000000    -6.830000000     0.169000000
O     2.162000000    -2.328000000     5.301000000
H     2.419000000    -2.996000000     5.936000000
H     2.985000000    -1.914000000     5.041000000
O     4.350000000    -6.480000000    -1.664000000
H     5.302000000    -6.395000000    -1.610000000
H     4.073000000    -5.739000000    -2.202000000
