218
-1461.22570
C    -1.642000000    -2.347000000     4.956000000
H    -0.828000000    -1.872000000     5.498000000
C    -1.362000000    -3.150000000     3.749000000
C    -2.434000000    -3.647000000     3.028000000
H    -2.197000000    -4.319000000     2.207000000
C     0.049000000    -3.205000000     3.107000000
O     1.075000000    -2.982000000     4.150000000
H     0.032000000    -2.429000000     2.328000000
O     0.352000000    -4.463000000     2.420000000
C     1.111000000    -4.326000000     1.246000000
C     0.430000000    -4.379000000     0.046000000
H    -0.611000000    -4.691000000     0.041000000
C     1.158000000    -4.314000000    -1.119000000
O     0.460000000    -4.355000000    -2.308000000
C     2.553000000    -4.079000000    -1.138000000
C     3.342000000    -3.890000000    -2.517000000
H     4.416000000    -4.086000000    -2.556000000
C     3.144000000    -2.413000000    -3.034000000
C     4.033000000    -1.444000000    -2.533000000
H     4.819000000    -1.735000000    -1.840000000
H     2.883000000    -4.534000000    -3.270000000
C     3.143000000    -3.880000000     0.104000000
H     4.188000000    -3.580000000     0.123000000
C     2.503000000    -4.081000000     1.323000000
C     3.326000000    -3.890000000     2.632000000
H     4.368000000    -4.056000000     2.349000000
H     3.032000000    -4.630000000     3.380000000
C     3.072000000    -2.421000000     3.171000000
C     3.962000000    -1.434000000     2.696000000
H     4.872000000    -1.676000000     2.153000000
C     2.016000000    -2.058000000     3.915000000
C     1.765000000    -0.767000000     4.242000000
H     0.892000000    -0.570000000     4.859000000
C     2.601000000     0.277000000     3.755000000
O     2.234000000     1.542000000     4.100000000
C     1.535000000     2.191000000     3.078000000
C     0.415000000     3.133000000     3.563000000
C     0.148000000     4.196000000     2.743000000
H     0.712000000     4.391000000     1.835000000
C    -0.432000000     2.748000000     4.568000000
H    -0.178000000     1.903000000     5.204000000
O     2.519000000     2.903000000     2.270000000
H     1.047000000     1.474000000     2.401000000
C     3.702000000    -0.053000000     3.002000000
C     4.700000000     0.913000000     2.406000000
H     5.675000000     0.486000000     2.166000000
H     4.885000000     1.770000000     3.057000000
C     4.134000000     1.445000000     1.147000000
C     4.699000000     1.061000000    -0.090000000
H     5.402000000     0.232000000    -0.073000000
C     3.132000000     2.449000000     1.106000000
C     2.664000000     3.062000000    -0.070000000
H     1.752000000     3.647000000    -0.156000000
C     3.187000000     2.577000000    -1.263000000
O     2.777000000     3.236000000    -2.416000000
C     1.852000000     2.365000000    -3.166000000
C     0.692000000     3.196000000    -3.668000000
C     0.440000000     4.416000000    -3.020000000
H     1.056000000     4.847000000    -2.235000000
C    -0.114000000     2.713000000    -4.735000000
H     0.114000000     1.768000000    -5.221000000
O     2.541000000     1.512000000    -4.148000000
H     1.441000000     1.661000000    -2.427000000
C     4.228000000     1.624000000    -1.270000000
C     4.801000000     0.912000000    -2.464000000
H     5.809000000     0.559000000    -2.237000000
H     4.852000000     1.679000000    -3.240000000
C     3.845000000    -0.147000000    -2.953000000
C     2.718000000     0.238000000    -3.742000000
C     1.866000000    -0.729000000    -4.171000000
H     1.031000000    -0.542000000    -4.842000000
C     2.112000000    -2.037000000    -3.886000000
O     1.101000000    -2.889000000    -4.121000000
C     0.279000000    -3.121000000    -2.973000000
H     0.383000000    -2.345000000    -2.201000000
C    -1.183000000    -2.994000000    -3.396000000
C    -2.196000000    -3.267000000    -2.552000000
H    -2.032000000    -3.634000000    -1.543000000
C    -1.425000000    -2.387000000    -4.589000000
H    -0.671000000    -2.036000000    -5.289000000
C    -2.703000000    -2.032000000    -4.963000000
O    -3.028000000    -1.685000000    -6.262000000
C    -3.740000000    -2.300000000    -4.075000000
H    -4.784000000    -2.212000000    -4.364000000
C    -3.488000000    -2.872000000    -2.859000000
O    -4.534000000    -3.052000000    -2.007000000
C    -4.575000000    -3.938000000    -0.978000000
C    -4.707000000    -3.459000000     0.303000000
H    -4.946000000    -2.406000000     0.424000000
C    -4.574000000    -5.287000000    -1.256000000
H    -4.497000000    -5.659000000    -2.275000000
C    -4.592000000    -6.219000000    -0.198000000
H    -4.448000000    -7.288000000    -0.330000000
C    -4.572000000    -5.693000000     1.099000000
H    -4.549000000    -6.372000000     1.947000000
C    -4.627000000    -4.344000000     1.348000000
O    -4.760000000    -3.873000000     2.600000000
C    -3.750000000    -3.422000000     3.434000000
C    -4.011000000    -2.628000000     4.577000000
H    -5.011000000    -2.346000000     4.900000000
C    -2.963000000    -2.175000000     5.382000000
O    -3.323000000    -1.481000000     6.534000000
C    -2.588000000    -0.327000000     6.882000000
C    -2.792000000     0.803000000     6.047000000
H    -3.315000000     0.752000000     5.095000000
C    -1.843000000    -0.257000000     8.062000000
H    -1.716000000    -1.163000000     8.650000000
C    -1.319000000     0.957000000     8.528000000
H    -0.786000000     0.909000000     9.474000000
C    -1.747000000     2.138000000     7.837000000
H    -1.434000000     3.071000000     8.297000000
C    -2.333000000     2.071000000     6.539000000
O    -2.442000000     3.196000000     5.734000000
C    -1.578000000     3.571000000     4.742000000
C    -1.748000000     4.758000000     4.076000000
H    -2.626000000     5.372000000     4.258000000
C    -0.917000000     5.051000000     3.024000000
O    -1.276000000     6.093000000     2.168000000
C    -0.563000000     6.416000000     1.066000000
C    -1.197000000     6.235000000    -0.215000000
H    -2.218000000     5.863000000    -0.175000000
C     0.766000000     6.839000000     1.119000000
H     1.224000000     7.007000000     2.090000000
C     1.434000000     7.137000000    -0.097000000
H     2.492000000     7.383000000    -0.069000000
C     0.726000000     7.102000000    -1.319000000
H     1.183000000     7.347000000    -2.274000000
C    -0.557000000     6.569000000    -1.411000000
O    -1.152000000     6.220000000    -2.570000000
C    -0.760000000     5.061000000    -3.331000000
C    -1.590000000     4.591000000    -4.349000000
H    -2.473000000     5.182000000    -4.578000000
C    -1.286000000     3.470000000    -5.064000000
O    -2.220000000     3.028000000    -6.006000000
C    -2.117000000     1.896000000    -6.758000000
C    -1.591000000     1.872000000    -8.048000000
H    -1.221000000     2.792000000    -8.494000000
C    -1.623000000     0.703000000    -8.794000000
H    -1.346000000     0.745000000    -9.845000000
C    -2.113000000    -0.491000000    -8.171000000
H    -2.102000000    -1.413000000    -8.747000000
C    -2.548000000    -0.478000000    -6.873000000
C    -2.492000000     0.698000000    -6.111000000
H    -2.725000000     0.663000000    -5.050000000
C    -1.876000000     1.764000000    -0.961000000
H    -2.018000000     2.412000000    -1.821000000
C    -0.955000000     0.741000000    -1.017000000
H    -0.474000000     0.495000000    -1.960000000
C    -0.570000000     0.163000000     0.129000000
C     0.502000000    -0.846000000     0.064000000
H     1.009000000    -1.168000000     0.976000000
H    -0.134000000    -1.627000000    -0.358000000
H     1.221000000    -0.585000000    -0.715000000
C    -1.136000000     0.444000000     1.370000000
H    -0.842000000    -0.012000000     2.312000000
C    -2.160000000     1.417000000     1.387000000
H    -2.637000000     1.591000000     2.348000000
C    -2.454000000     2.153000000     0.243000000
C    -3.357000000     3.329000000     0.296000000
O    -3.598000000     3.933000000     1.321000000
O    -4.003000000     3.591000000    -0.671000000
O    -5.545000000     3.091000000     3.095000000
H    -6.059000000     3.327000000     2.322000000
H    -4.665000000     3.417000000     2.906000000
O    -4.659000000    -0.118000000     0.938000000
H    -5.131000000     0.017000000     0.116000000
H    -3.774000000     0.199000000     0.761000000
O    -4.795000000     6.203000000     1.302000000
H    -4.949000000     6.385000000     2.229000000
H    -4.118000000     5.527000000     1.300000000
O    -1.852000000     9.195000000     2.059000000
H    -2.312000000     8.680000000     1.397000000
H    -2.529000000     9.750000000     2.445000000
O    -5.614000000     0.569000000    -1.474000000
H    -6.351000000     1.167000000    -1.594000000
H    -4.859000000     1.048000000    -1.818000000
O    -4.983000000     4.402000000     6.439000000
H    -4.334000000     4.008000000     5.856000000
H    -5.826000000     4.174000000     6.047000000
O    -7.183000000    -1.151000000     2.664000000
H    -7.778000000    -0.629000000     2.125000000
H    -6.311000000    -0.941000000     2.330000000
O    -5.943000000     0.483000000    -4.543000000
H    -5.278000000     1.156000000    -4.395000000
H    -6.657000000     0.944000000    -4.983000000
O    -7.722000000     4.064000000    -2.262000000
H    -6.820000000     4.338000000    -2.098000000
H    -8.253000000     4.813000000    -1.989000000
O    -7.257000000     6.771000000     3.542000000
H    -6.323000000     6.730000000     3.750000000
H    -7.691000000     6.803000000     4.395000000
O    -5.495000000     5.401000000    -1.685000000
H    -4.942000000     4.699000000    -1.343000000
H    -5.157000000     6.195000000    -1.272000000
O    -3.587000000     8.241000000    -0.398000000
H    -4.079000000     7.655000000     0.178000000
H    -3.913000000     9.116000000    -0.185000000
O    -4.661000000     2.837000000    -3.157000000
H    -4.314000000     3.166000000    -2.328000000
H    -4.881000000     3.624000000    -3.654000000
O    -4.634000000     6.747000000     4.340000000
H    -4.392000000     7.669000000     4.428000000
H    -4.884000000     6.480000000     5.225000000
O    -6.663000000     1.152000000     4.650000000
H    -6.939000000     0.331000000     4.242000000
H    -6.316000000     1.674000000     3.927000000
O    -6.356000000     2.876000000     0.437000000
H    -6.053000000     1.992000000     0.231000000
H    -5.701000000     3.452000000     0.042000000
O    -9.976000000     2.699000000     0.165000000
H    -9.054000000     2.630000000     0.410000000
H   -10.213000000     3.602000000     0.378000000
O    -8.794000000     3.664000000     3.080000000
H    -8.802000000     4.089000000     2.222000000
H    -7.900000000     3.783000000     3.398000000
O    -7.673000000     5.530000000     1.175000000
H    -6.768000000     5.656000000     0.890000000
H    -7.746000000     6.047000000     1.977000000
