218
-1461.29294
C    -0.611000000    -1.121000000     4.791000000
H     0.220000000    -0.490000000     5.096000000
C    -0.405000000    -2.306000000     4.060000000
C    -1.424000000    -3.250000000     4.018000000
H    -1.197000000    -4.132000000     3.425000000
C     0.934000000    -2.499000000     3.304000000
O     2.085000000    -1.900000000     4.023000000
H     0.846000000    -1.952000000     2.353000000
O     1.269000000    -3.905000000     3.054000000
C     1.609000000    -4.185000000     1.794000000
C     0.569000000    -4.524000000     0.885000000
H    -0.429000000    -4.701000000     1.280000000
C     0.799000000    -4.560000000    -0.462000000
O    -0.227000000    -4.770000000    -1.362000000
C     2.082000000    -4.276000000    -0.972000000
C     2.333000000    -4.292000000    -2.480000000
H     3.366000000    -4.609000000    -2.637000000
C     2.091000000    -3.017000000    -3.200000000
C     3.116000000    -2.099000000    -3.399000000
H     4.083000000    -2.358000000    -2.977000000
H     1.781000000    -5.091000000    -2.980000000
C     3.141000000    -3.933000000    -0.107000000
H     4.125000000    -3.631000000    -0.456000000
C     2.886000000    -3.790000000     1.258000000
C     3.982000000    -3.264000000     2.125000000
H     4.964000000    -3.456000000     1.687000000
H     4.087000000    -3.733000000     3.105000000
C     3.867000000    -1.753000000     2.289000000
C     4.595000000    -0.876000000     1.443000000
H     5.463000000    -1.376000000     1.022000000
C     2.961000000    -1.186000000     3.170000000
C     2.784000000     0.158000000     3.261000000
H     2.157000000     0.632000000     4.011000000
C     3.564000000     1.006000000     2.453000000
O     3.412000000     2.386000000     2.537000000
C     2.605000000     3.003000000     1.453000000
C     1.715000000     4.030000000     2.201000000
C     1.302000000     5.171000000     1.547000000
H     1.560000000     5.310000000     0.500000000
C     1.042000000     3.783000000     3.430000000
H     1.268000000     2.860000000     3.958000000
O     3.539000000     3.629000000     0.550000000
H     2.002000000     2.242000000     0.936000000
C     4.487000000     0.508000000     1.497000000
C     5.390000000     1.343000000     0.569000000
H     6.197000000     0.760000000     0.120000000
H     5.890000000     2.151000000     1.107000000
C     4.558000000     1.776000000    -0.628000000
C     4.640000000     0.952000000    -1.766000000
H     5.255000000     0.056000000    -1.739000000
C     3.718000000     2.877000000    -0.610000000
C     3.013000000     3.179000000    -1.783000000
H     2.326000000     4.021000000    -1.763000000
C     3.090000000     2.375000000    -2.945000000
O     2.217000000     2.614000000    -3.976000000
C     1.068000000     1.842000000    -3.896000000
C    -0.297000000     2.668000000    -4.111000000
C    -0.491000000     3.759000000    -3.309000000
H     0.259000000     4.215000000    -2.668000000
C    -1.346000000     2.097000000    -4.837000000
H    -1.254000000     1.047000000    -5.106000000
O     1.162000000     0.634000000    -4.837000000
H     1.041000000     1.482000000    -2.857000000
C     3.801000000     1.130000000    -2.816000000
C     3.973000000     0.205000000    -4.003000000
H     4.930000000    -0.320000000    -4.011000000
H     4.002000000     0.625000000    -5.011000000
C     2.880000000    -0.845000000    -3.982000000
C     1.591000000    -0.594000000    -4.450000000
C     0.588000000    -1.574000000    -4.411000000
H    -0.411000000    -1.373000000    -4.788000000
C     0.825000000    -2.763000000    -3.721000000
O    -0.264000000    -3.609000000    -3.422000000
C    -0.767000000    -3.643000000    -2.103000000
H    -0.407000000    -2.703000000    -1.660000000
C    -2.323000000    -3.781000000    -2.108000000
C    -2.995000000    -4.447000000    -1.022000000
H    -2.394000000    -5.078000000    -0.373000000
C    -3.020000000    -2.900000000    -2.930000000
H    -2.485000000    -2.284000000    -3.648000000
C    -4.446000000    -2.815000000    -2.785000000
O    -5.108000000    -1.886000000    -3.545000000
C    -5.104000000    -3.594000000    -1.834000000
H    -6.190000000    -3.552000000    -1.855000000
C    -4.383000000    -4.352000000    -0.924000000
O    -5.047000000    -4.932000000     0.128000000
C    -4.570000000    -5.299000000     1.360000000
C    -4.268000000    -4.367000000     2.286000000
H    -4.410000000    -3.304000000     2.108000000
C    -4.749000000    -6.632000000     1.766000000
H    -5.102000000    -7.321000000     1.002000000
C    -4.519000000    -6.994000000     3.068000000
H    -4.549000000    -8.056000000     3.297000000
C    -3.928000000    -6.067000000     3.995000000
H    -3.531000000    -6.246000000     4.991000000
C    -3.891000000    -4.769000000     3.577000000
O    -3.635000000    -3.892000000     4.573000000
C    -2.650000000    -3.038000000     4.627000000
C    -2.844000000    -1.798000000     5.373000000
H    -3.739000000    -1.719000000     5.985000000
C    -1.822000000    -0.861000000     5.408000000
O    -1.958000000     0.202000000     6.339000000
C    -1.041000000     1.257000000     6.413000000
C    -1.122000000     2.300000000     5.566000000
H    -1.780000000     2.246000000     4.702000000
C    -0.265000000     1.251000000     7.552000000
H    -0.166000000     0.382000000     8.197000000
C     0.365000000     2.456000000     7.931000000
H     0.761000000     2.476000000     8.943000000
C     0.255000000     3.541000000     7.068000000
H     0.716000000     4.455000000     7.434000000
C    -0.435000000     3.507000000     5.881000000
O    -0.619000000     4.578000000     5.029000000
C     0.175000000     4.784000000     3.957000000
C     0.011000000     6.006000000     3.364000000
H    -0.597000000     6.770000000     3.841000000
C     0.474000000     6.147000000     2.084000000
O     0.196000000     7.277000000     1.276000000
C     0.035000000     7.242000000    -0.074000000
C    -1.051000000     6.528000000    -0.605000000
H    -1.734000000     6.054000000     0.096000000
C     0.971000000     7.734000000    -0.909000000
H     1.867000000     8.216000000    -0.527000000
C     0.817000000     7.785000000    -2.304000000
H     1.584000000     8.204000000    -2.951000000
C    -0.204000000     7.047000000    -2.864000000
H    -0.329000000     6.976000000    -3.941000000
C    -1.116000000     6.317000000    -2.006000000
O    -2.064000000     5.540000000    -2.590000000
C    -1.746000000     4.362000000    -3.299000000
C    -2.729000000     3.844000000    -4.126000000
H    -3.693000000     4.337000000    -4.029000000
C    -2.587000000     2.728000000    -4.914000000
O    -3.629000000     2.206000000    -5.649000000
C    -3.816000000     0.824000000    -5.728000000
C    -3.329000000     0.074000000    -6.767000000
H    -2.810000000     0.590000000    -7.570000000
C    -3.612000000    -1.280000000    -6.876000000
H    -3.177000000    -1.905000000    -7.652000000
C    -4.216000000    -1.886000000    -5.774000000
H    -4.471000000    -2.935000000    -5.900000000
C    -4.649000000    -1.244000000    -4.715000000
C    -4.473000000     0.172000000    -4.684000000
H    -4.714000000     0.766000000    -3.807000000
C    -2.107000000     0.596000000    -1.532000000
H    -2.735000000     0.481000000    -2.413000000
C    -0.955000000    -0.116000000    -1.439000000
H    -0.626000000    -0.691000000    -2.300000000
C    -0.049000000     0.038000000    -0.349000000
C     1.301000000    -0.641000000    -0.337000000
H     1.373000000    -1.226000000    -1.256000000
H     2.084000000     0.119000000    -0.380000000
H     1.510000000    -1.301000000     0.508000000
C    -0.353000000     0.920000000     0.693000000
H     0.208000000     1.006000000     1.620000000
C    -1.596000000     1.565000000     0.634000000
H    -1.843000000     2.307000000     1.389000000
C    -2.498000000     1.389000000    -0.460000000
C    -3.828000000     2.178000000    -0.463000000
O    -4.023000000     2.955000000     0.436000000
O    -4.770000000     1.833000000    -1.179000000
O    -9.337000000     3.399000000    -0.726000000
H    -8.631000000     3.854000000    -0.267000000
H    -9.338000000     2.519000000    -0.351000000
O    -4.432000000     6.603000000    -3.324000000
H    -5.332000000     6.427000000    -3.599000000
H    -4.347000000     6.155000000    -2.482000000
O    -4.968000000     5.088000000    -1.083000000
H    -5.651000000     4.639000000    -1.581000000
H    -4.565000000     4.400000000    -0.554000000
O    -3.684000000     4.055000000     4.850000000
H    -4.308000000     3.447000000     4.452000000
H    -3.418000000     3.627000000     5.664000000
O    -4.909000000    -0.686000000     2.403000000
H    -5.606000000    -0.835000000     1.763000000
H    -4.107000000    -0.943000000     1.948000000
O    -6.636000000    -0.075000000    -1.360000000
H    -6.022000000     0.642000000    -1.204000000
H    -6.484000000    -0.683000000    -0.636000000
O    -8.300000000    -2.680000000    -1.851000000
H    -8.000000000    -1.863000000    -1.450000000
H    -8.474000000    -3.260000000    -1.110000000
O    -4.647000000     0.672000000     5.758000000
H    -4.362000000     0.398000000     4.886000000
H    -3.834000000     0.856000000     6.228000000
O    -7.216000000    -2.025000000     1.017000000
H    -8.089000000    -1.923000000     1.395000000
H    -7.000000000    -2.947000000     1.158000000
O    -6.972000000     1.695000000     2.827000000
H    -6.787000000     2.231000000     3.598000000
H    -6.532000000     0.863000000     3.001000000
O    -7.265000000     3.789000000     1.196000000
H    -7.092000000     2.977000000     1.671000000
H    -6.692000000     3.745000000     0.430000000
O    -6.490000000     3.105000000    -6.112000000
H    -6.460000000     4.014000000    -5.815000000
H    -5.649000000     2.736000000    -5.843000000
O    -5.192000000     7.031000000     1.284000000
H    -5.245000000     6.569000000     0.448000000
H    -4.602000000     6.496000000     1.816000000
O    -3.792000000     4.838000000     2.226000000
H    -3.574000000     4.503000000     3.096000000
H    -3.939000000     4.054000000     1.697000000
O    -5.959000000     3.217000000    -3.179000000
H    -5.559000000     2.699000000    -2.481000000
H    -6.663000000     2.662000000    -3.516000000
O    -2.889000000    -1.413000000     0.732000000
H    -2.415000000    -0.788000000     0.184000000
H    -2.919000000    -2.215000000     0.211000000
O    -7.346000000     5.384000000    -4.511000000
H    -6.847000000     4.864000000    -3.880000000
H    -8.261000000     5.162000000    -4.334000000
O    -4.231000000     1.980000000     2.949000000
H    -4.366000000     1.033000000     2.957000000
H    -4.330000000     2.229000000     2.030000000
O    -9.233000000     0.475000000    -0.346000000
H    -8.415000000     0.189000000    -0.752000000
H    -9.399000000    -0.172000000     0.339000000
