218
-1463.62603
C    -0.049000000    -0.844000000     5.359000000
H     0.793000000    -0.166000000     5.477000000
C     0.021000000    -1.918000000     4.480000000
C    -1.090000000    -2.710000000     4.393000000
H    -1.148000000    -3.642000000     3.838000000
C     1.204000000    -2.117000000     3.569000000
O     2.376000000    -1.486000000     4.070000000
H     0.995000000    -1.749000000     2.554000000
O     1.294000000    -3.562000000     3.326000000
C     1.628000000    -3.917000000     2.042000000
C     0.643000000    -4.562000000     1.289000000
H    -0.180000000    -4.978000000     1.865000000
C     0.876000000    -4.772000000    -0.064000000
O    -0.243000000    -5.127000000    -0.840000000
C     2.078000000    -4.402000000    -0.684000000
C     2.334000000    -4.608000000    -2.150000000
H     3.356000000    -4.923000000    -2.371000000
C     1.980000000    -3.401000000    -2.983000000
C     2.942000000    -2.468000000    -3.296000000
H     3.968000000    -2.736000000    -3.061000000
H     1.835000000    -5.516000000    -2.495000000
C     3.084000000    -3.896000000     0.098000000
H     4.054000000    -3.614000000    -0.302000000
C     2.915000000    -3.675000000     1.499000000
C     4.053000000    -3.006000000     2.264000000
H     5.053000000    -3.283000000     1.922000000
H     3.977000000    -3.368000000     3.291000000
C     3.881000000    -1.455000000     2.235000000
C     4.576000000    -0.681000000     1.315000000
H     5.276000000    -1.189000000     0.656000000
C     3.121000000    -0.814000000     3.188000000
C     3.078000000     0.580000000     3.159000000
H     2.502000000     1.024000000     3.967000000
C     3.708000000     1.325000000     2.175000000
O     3.367000000     2.601000000     2.081000000
C     2.553000000     3.002000000     1.007000000
C     1.449000000     3.991000000     1.523000000
C     0.720000000     4.737000000     0.554000000
H     0.906000000     4.699000000    -0.517000000
C     1.081000000     3.989000000     2.860000000
H     1.575000000     3.342000000     3.580000000
O     3.265000000     3.522000000    -0.069000000
H     1.985000000     2.111000000     0.704000000
C     4.486000000     0.673000000     1.254000000
C     5.314000000     1.448000000     0.188000000
H     6.255000000     0.944000000    -0.046000000
H     5.533000000     2.443000000     0.581000000
C     4.498000000     1.714000000    -1.059000000
C     4.581000000     0.780000000    -2.114000000
H     5.250000000    -0.059000000    -1.942000000
C     3.570000000     2.723000000    -1.134000000
C     2.833000000     2.898000000    -2.311000000
H     2.207000000     3.784000000    -2.378000000
C     2.956000000     1.968000000    -3.335000000
O     2.084000000     2.080000000    -4.425000000
C     0.884000000     1.309000000    -4.258000000
C    -0.334000000     2.181000000    -4.526000000
C    -0.309000000     3.534000000    -4.489000000
H     0.562000000     4.097000000    -4.163000000
C    -1.496000000     1.554000000    -4.877000000
H    -1.497000000     0.478000000    -5.030000000
O     1.059000000     0.135000000    -5.094000000
H     0.787000000     1.067000000    -3.190000000
C     3.740000000     0.826000000    -3.168000000
C     3.721000000    -0.262000000    -4.214000000
H     4.625000000    -0.874000000    -4.181000000
H     3.759000000     0.121000000    -5.236000000
C     2.641000000    -1.290000000    -4.004000000
C     1.372000000    -1.008000000    -4.402000000
C     0.336000000    -1.959000000    -4.117000000
H    -0.647000000    -1.600000000    -4.411000000
C     0.654000000    -3.168000000    -3.391000000
O    -0.389000000    -4.049000000    -2.989000000
C    -0.803000000    -3.989000000    -1.563000000
H    -0.521000000    -2.998000000    -1.178000000
C    -2.346000000    -3.880000000    -1.392000000
C    -3.051000000    -4.525000000    -0.350000000
H    -2.457000000    -5.091000000     0.363000000
C    -3.051000000    -3.051000000    -2.265000000
H    -2.611000000    -2.572000000    -3.136000000
C    -4.399000000    -2.799000000    -1.987000000
O    -5.104000000    -1.815000000    -2.732000000
C    -5.083000000    -3.534000000    -0.992000000
H    -6.113000000    -3.316000000    -0.721000000
C    -4.421000000    -4.404000000    -0.125000000
O    -5.002000000    -4.844000000     1.051000000
C    -4.307000000    -5.153000000     2.203000000
C    -4.175000000    -4.081000000     3.112000000
H    -4.585000000    -3.086000000     2.954000000
C    -3.915000000    -6.423000000     2.527000000
H    -4.238000000    -7.198000000     1.837000000
C    -3.270000000    -6.656000000     3.765000000
H    -2.896000000    -7.644000000     4.022000000
C    -3.018000000    -5.610000000     4.615000000
H    -2.441000000    -5.788000000     5.518000000
C    -3.516000000    -4.330000000     4.258000000
O    -3.398000000    -3.253000000     5.084000000
C    -2.260000000    -2.467000000     5.170000000
C    -2.269000000    -1.383000000     6.013000000
H    -3.125000000    -1.012000000     6.570000000
C    -1.178000000    -0.523000000     6.088000000
O    -1.169000000     0.580000000     6.918000000
C    -0.554000000     1.829000000     6.691000000
C    -0.751000000     2.673000000     5.601000000
H    -1.215000000     2.336000000     4.678000000
C     0.128000000     2.323000000     7.850000000
H    -0.042000000     1.770000000     8.769000000
C     0.735000000     3.620000000     7.873000000
H     1.221000000     3.793000000     8.831000000
C     0.416000000     4.458000000     6.719000000
H     0.790000000     5.479000000     6.691000000
C    -0.262000000     3.907000000     5.623000000
O    -0.504000000     4.785000000     4.591000000
C    -0.051000000     4.725000000     3.257000000
C    -0.690000000     5.543000000     2.367000000
H    -1.615000000     6.064000000     2.600000000
C    -0.398000000     5.444000000     0.986000000
O    -1.290000000     5.998000000     0.129000000
C    -0.856000000     6.591000000    -1.070000000
C    -1.272000000     5.890000000    -2.210000000
H    -1.913000000     5.012000000    -2.235000000
C    -0.034000000     7.666000000    -1.162000000
H     0.353000000     8.128000000    -0.258000000
C     0.376000000     8.134000000    -2.410000000
H     1.028000000     9.003000000    -2.372000000
C     0.024000000     7.382000000    -3.542000000
H     0.376000000     7.705000000    -4.518000000
C    -0.841000000     6.270000000    -3.395000000
O    -1.422000000     5.647000000    -4.541000000
C    -1.444000000     4.290000000    -4.739000000
C    -2.566000000     3.707000000    -5.273000000
H    -3.334000000     4.361000000    -5.678000000
C    -2.624000000     2.318000000    -5.283000000
O    -3.727000000     1.724000000    -5.765000000
C    -4.160000000     0.460000000    -5.401000000
C    -4.090000000    -0.467000000    -6.415000000
H    -3.898000000    -0.261000000    -7.465000000
C    -4.340000000    -1.793000000    -6.235000000
H    -4.510000000    -2.407000000    -7.115000000
C    -4.670000000    -2.246000000    -4.949000000
H    -5.110000000    -3.226000000    -4.785000000
C    -4.734000000    -1.306000000    -3.941000000
C    -4.393000000     0.032000000    -4.034000000
H    -4.312000000     0.648000000    -3.142000000
C    -2.695000000    -0.640000000     1.475000000
H    -3.491000000    -1.301000000     1.807000000
C    -1.490000000    -1.151000000     0.842000000
H    -1.299000000    -2.221000000     0.833000000
C    -0.470000000    -0.347000000     0.366000000
C     0.776000000    -0.915000000    -0.199000000
H     1.669000000    -0.293000000    -0.114000000
H     0.969000000    -1.867000000     0.299000000
H     0.573000000    -1.147000000    -1.246000000
C    -0.629000000     1.035000000     0.487000000
H     0.070000000     1.748000000     0.058000000
C    -1.770000000     1.563000000     1.062000000
H    -1.946000000     2.634000000     1.016000000
C    -2.784000000     0.737000000     1.583000000
C    -4.023000000     1.364000000     2.232000000
O    -4.065000000     2.577000000     2.477000000
O    -5.099000000     0.758000000     2.449000000
O    -6.776000000     2.704000000     1.510000000
H    -5.955000000     2.879000000     1.970000000
H    -6.936000000     1.771000000     1.652000000
O    -8.327000000     4.782000000     0.996000000
H    -9.116000000     4.492000000     0.539000000
H    -7.833000000     3.977000000     1.154000000
O    -6.352000000     3.458000000     6.375000000
H    -7.076000000     3.306000000     5.767000000
H    -5.783000000     4.079000000     5.920000000
O    -5.670000000     5.039000000     3.338000000
H    -6.574000000     4.785000000     3.523000000
H    -5.218000000     4.212000000     3.171000000
O    -8.928000000    -1.733000000     3.684000000
H    -9.480000000    -1.919000000     4.443000000
H    -8.799000000    -0.784000000     3.707000000
O    -8.076000000    -0.368000000    -2.269000000
H    -7.212000000    -0.748000000    -2.106000000
H    -8.209000000    -0.469000000    -3.211000000
O    -6.514000000    -0.255000000     0.506000000
H    -5.973000000    -0.012000000     1.258000000
H    -5.886000000    -0.520000000    -0.166000000
O    -8.292000000     3.815000000     4.317000000
H    -8.930000000     4.468000000     4.604000000
H    -8.685000000     3.423000000     3.537000000
O    -8.337000000    -2.612000000     1.150000000
H    -8.706000000    -2.537000000     2.030000000
H    -7.848000000    -1.799000000     1.024000000
O    -4.608000000     6.418000000    -1.618000000
H    -4.666000000     5.544000000    -2.004000000
H    -5.307000000     6.438000000    -0.965000000
O    -5.312000000     2.331000000    -1.033000000
H    -4.663000000     2.253000000    -0.334000000
H    -6.152000000     2.179000000    -0.599000000
O    -6.292000000     6.344000000     0.614000000
H    -7.090000000     5.831000000     0.742000000
H    -5.789000000     6.210000000     1.417000000
O    -9.495000000     0.918000000     0.669000000
H    -9.936000000     1.301000000    -0.089000000
H    -8.726000000     0.480000000     0.303000000
O    -5.238000000     1.034000000     6.904000000
H    -5.565000000     0.529000000     6.160000000
H    -5.479000000     1.938000000     6.705000000
O    -5.588000000     3.864000000    -3.338000000
H    -5.232000000     3.462000000    -2.545000000
H    -6.364000000     3.342000000    -3.543000000
O    -6.195000000    -0.120000000     4.716000000
H    -5.706000000     0.166000000     3.944000000
H    -6.036000000    -1.063000000     4.764000000
O    -3.560000000     0.784000000     8.990000000
H    -2.934000000     0.144000000     8.651000000
H    -4.129000000     0.979000000     8.245000000
O    -8.665000000     1.398000000     6.752000000
H    -8.530000000     1.853000000     7.583000000
H    -7.812000000     1.431000000     6.319000000
O    -3.513000000     5.934000000     4.830000000
H    -4.402000000     5.902000000     4.477000000
H    -3.158000000     5.060000000     4.665000000
