218
-1437.55760
C    -0.126000000    -0.970000000     5.434000000
H     0.776000000    -0.373000000     5.537000000
C    -0.154000000    -1.923000000     4.439000000
C    -1.369000000    -2.512000000     4.075000000
H    -1.503000000    -3.104000000     3.173000000
C     1.040000000    -2.088000000     3.488000000
O     2.294000000    -1.596000000     3.960000000
H     0.705000000    -1.530000000     2.601000000
O     1.228000000    -3.449000000     3.076000000
C     1.537000000    -3.760000000     1.730000000
C     0.511000000    -4.233000000     0.998000000
H    -0.479000000    -4.310000000     1.441000000
C     0.760000000    -4.695000000    -0.244000000
O    -0.336000000    -5.120000000    -0.977000000
C     2.001000000    -4.442000000    -0.754000000
C     2.249000000    -4.583000000    -2.237000000
H     3.283000000    -4.862000000    -2.447000000
C     1.928000000    -3.348000000    -3.055000000
C     2.853000000    -2.464000000    -3.416000000
H     3.893000000    -2.649000000    -3.159000000
H     1.679000000    -5.331000000    -2.792000000
C     3.082000000    -3.890000000    -0.072000000
H     4.029000000    -3.664000000    -0.555000000
C     2.837000000    -3.612000000     1.239000000
C     4.001000000    -3.168000000     2.057000000
H     4.972000000    -3.550000000     1.736000000
H     3.927000000    -3.713000000     3.000000000
C     3.979000000    -1.658000000     2.136000000
C     4.772000000    -0.934000000     1.270000000
H     5.420000000    -1.459000000     0.574000000
C     3.101000000    -0.991000000     3.031000000
C     3.015000000     0.384000000     2.932000000
H     2.225000000     0.853000000     3.513000000
C     3.772000000     1.107000000     2.016000000
O     3.496000000     2.442000000     1.969000000
C     2.606000000     2.854000000     0.942000000
C     1.649000000     3.834000000     1.429000000
C     1.202000000     4.906000000     0.604000000
H     1.692000000     5.145000000    -0.337000000
C     1.024000000     3.566000000     2.638000000
H     1.318000000     2.707000000     3.235000000
O     3.420000000     3.362000000    -0.146000000
H     2.201000000     1.890000000     0.598000000
C     4.638000000     0.503000000     1.130000000
C     5.458000000     1.220000000     0.181000000
H     6.379000000     0.651000000     0.044000000
H     5.889000000     2.101000000     0.660000000
C     4.654000000     1.520000000    -1.142000000
C     4.630000000     0.599000000    -2.174000000
H     5.225000000    -0.310000000    -2.211000000
C     3.806000000     2.580000000    -1.154000000
C     3.082000000     2.861000000    -2.346000000
H     2.249000000     3.547000000    -2.476000000
C     3.023000000     1.927000000    -3.386000000
O     2.085000000     2.134000000    -4.359000000
C     0.863000000     1.438000000    -4.139000000
C    -0.372000000     2.326000000    -4.344000000
C    -0.303000000     3.707000000    -4.454000000
H     0.649000000     4.195000000    -4.647000000
C    -1.622000000     1.763000000    -4.127000000
H    -1.716000000     0.685000000    -4.021000000
O     0.892000000     0.235000000    -4.951000000
H     0.791000000     1.117000000    -3.089000000
C     3.764000000     0.812000000    -3.272000000
C     3.705000000    -0.326000000    -4.308000000
H     4.712000000    -0.746000000    -4.268000000
H     3.643000000     0.085000000    -5.317000000
C     2.535000000    -1.310000000    -4.056000000
C     1.215000000    -0.969000000    -4.353000000
C     0.203000000    -1.860000000    -3.977000000
H    -0.861000000    -1.839000000    -4.198000000
C     0.592000000    -3.024000000    -3.314000000
O    -0.422000000    -3.871000000    -3.062000000
C    -1.003000000    -4.006000000    -1.650000000
H    -0.710000000    -3.038000000    -1.219000000
C    -2.519000000    -3.913000000    -1.587000000
C    -3.103000000    -4.467000000    -0.404000000
H    -2.521000000    -4.998000000     0.345000000
C    -3.343000000    -3.266000000    -2.487000000
H    -2.947000000    -2.776000000    -3.372000000
C    -4.739000000    -3.208000000    -2.319000000
O    -5.534000000    -2.480000000    -3.166000000
C    -5.297000000    -3.820000000    -1.227000000
H    -6.369000000    -3.766000000    -1.060000000
C    -4.480000000    -4.444000000    -0.282000000
O    -5.105000000    -4.918000000     0.808000000
C    -4.557000000    -5.123000000     2.053000000
C    -4.231000000    -3.997000000     2.816000000
H    -4.212000000    -3.052000000     2.279000000
C    -4.670000000    -6.330000000     2.779000000
H    -5.057000000    -7.244000000     2.335000000
C    -4.104000000    -6.421000000     4.032000000
H    -4.123000000    -7.341000000     4.610000000
C    -3.831000000    -5.243000000     4.757000000
H    -3.565000000    -5.286000000     5.810000000
C    -3.948000000    -4.033000000     4.138000000
O    -3.662000000    -2.828000000     4.776000000
C    -2.445000000    -2.369000000     4.986000000
C    -2.378000000    -1.427000000     6.041000000
H    -3.219000000    -1.364000000     6.727000000
C    -1.230000000    -0.611000000     6.247000000
O    -1.193000000     0.377000000     7.206000000
C    -0.560000000     1.551000000     6.973000000
C    -0.832000000     2.219000000     5.759000000
H    -1.724000000     1.925000000     5.212000000
C     0.386000000     2.093000000     7.844000000
H     0.535000000     1.486000000     8.733000000
C     1.103000000     3.175000000     7.426000000
H     1.894000000     3.584000000     8.048000000
C     0.862000000     3.884000000     6.204000000
H     1.399000000     4.799000000     5.971000000
C    -0.112000000     3.357000000     5.377000000
O    -0.603000000     4.187000000     4.340000000
C    -0.055000000     4.391000000     3.056000000
C    -0.403000000     5.520000000     2.318000000
H    -1.076000000     6.235000000     2.783000000
C     0.162000000     5.671000000     1.057000000
O    -0.231000000     6.843000000     0.411000000
C    -0.093000000     7.031000000    -0.917000000
C    -0.772000000     6.350000000    -1.885000000
H    -1.505000000     5.599000000    -1.601000000
C     1.031000000     7.715000000    -1.330000000
H     1.621000000     8.170000000    -0.539000000
C     1.280000000     7.907000000    -2.727000000
H     2.091000000     8.573000000    -3.013000000
C     0.419000000     7.316000000    -3.667000000
H     0.510000000     7.424000000    -4.745000000
C    -0.557000000     6.458000000    -3.223000000
O    -1.407000000     5.829000000    -4.113000000
C    -1.454000000     4.490000000    -4.237000000
C    -2.690000000     3.936000000    -4.047000000
H    -3.455000000     4.709000000    -4.034000000
C    -2.762000000     2.555000000    -3.965000000
O    -3.983000000     1.971000000    -3.939000000
C    -4.201000000     0.683000000    -4.424000000
C    -3.910000000     0.337000000    -5.733000000
H    -3.504000000     1.109000000    -6.382000000
C    -4.301000000    -0.923000000    -6.217000000
H    -3.995000000    -1.209000000    -7.221000000
C    -4.895000000    -1.838000000    -5.377000000
H    -5.258000000    -2.840000000    -5.590000000
C    -5.031000000    -1.535000000    -3.999000000
C    -4.722000000    -0.241000000    -3.534000000
H    -4.987000000     0.132000000    -2.548000000
C    -2.335000000    -0.085000000     0.613000000
H    -3.040000000    -0.710000000     1.155000000
C    -1.082000000    -0.607000000     0.314000000
H    -0.804000000    -1.606000000     0.641000000
C    -0.203000000     0.168000000    -0.402000000
C     1.156000000    -0.354000000    -0.597000000
H     1.879000000     0.082000000     0.096000000
H     1.282000000    -1.429000000    -0.454000000
H     1.547000000    -0.093000000    -1.582000000
C    -0.470000000     1.504000000    -0.587000000
H     0.202000000     2.281000000    -0.942000000
C    -1.667000000     2.062000000    -0.219000000
H    -1.845000000     3.127000000    -0.344000000
C    -2.651000000     1.208000000     0.341000000
C    -3.903000000     1.902000000     0.794000000
O    -3.971000000     3.098000000     0.885000000
O    -4.784000000     1.160000000     1.347000000
O    -8.224000000     2.109000000     2.647000000
H    -9.170000000     1.992000000     2.731000000
H    -7.977000000     1.548000000     1.912000000
O    -4.092000000     5.253000000    -0.575000000
H    -4.070000000     4.424000000    -0.096000000
H    -3.595000000     5.859000000    -0.026000000
O    -8.964000000     4.733000000     1.406000000
H    -8.490000000     3.940000000     1.157000000
H    -9.164000000     4.611000000     2.334000000
O    -5.752000000     3.032000000     6.214000000
H    -6.221000000     3.140000000     7.042000000
H    -6.374000000     3.326000000     5.547000000
O    -3.666000000     3.477000000     3.831000000
H    -4.418000000     2.886000000     3.857000000
H    -3.585000000     3.723000000     2.910000000
O    -6.724000000    -0.932000000     3.269000000
H    -6.972000000    -0.484000000     2.461000000
H    -5.796000000    -0.728000000     3.382000000
O    -7.688000000     0.167000000    -2.192000000
H    -7.852000000    -0.759000000    -2.013000000
H    -8.538000000     0.514000000    -2.461000000
O    -6.993000000    -0.240000000     0.519000000
H    -6.135000000     0.007000000     0.863000000
H    -6.941000000    -0.046000000    -0.417000000
O    -7.384000000     4.235000000     4.303000000
H    -8.256000000     4.610000000     4.423000000
H    -7.532000000     3.446000000     3.781000000
O    -2.846000000     7.110000000     1.077000000
H    -1.899000000     7.135000000     0.940000000
H    -3.123000000     8.022000000     1.000000000
O    -6.319000000     6.271000000    -1.563000000
H    -6.122000000     6.092000000    -2.482000000
H    -5.533000000     5.997000000    -1.091000000
O    -5.887000000     7.460000000     1.124000000
H    -5.907000000     7.161000000     2.034000000
H    -6.485000000     6.871000000     0.665000000
O    -6.312000000     5.276000000    -4.113000000
H    -6.184000000     5.144000000    -5.052000000
H    -6.298000000     4.394000000    -3.743000000
O    -6.615000000     3.316000000    -0.321000000
H    -6.199000000     4.170000000    -0.198000000
H    -6.140000000     2.731000000     0.268000000
O    -5.286000000     5.827000000     3.736000000
H    -6.153000000     5.425000000     3.785000000
H    -4.682000000     5.086000000     3.684000000
O    -5.005000000     0.610000000     6.218000000
H    -4.841000000     0.399000000     5.299000000
H    -5.178000000     1.551000000     6.221000000
O    -7.157000000     2.919000000    -2.912000000
H    -7.203000000     3.254000000    -2.017000000
H    -7.147000000     1.967000000    -2.811000000
O    -4.021000000     0.067000000     3.531000000
H    -4.251000000     0.485000000     2.701000000
H    -3.141000000     0.389000000     3.725000000
O    -3.131000000     4.432000000     6.357000000
H    -2.971000000     4.102000000     5.473000000
H    -4.080000000     4.376000000     6.466000000
