218
-1445.49939
C    -0.631000000     2.343000000     4.865000000
H     0.327000000     2.797000000     4.625000000
C    -0.900000000     0.968000000     4.941000000
C    -2.227000000     0.507000000     5.097000000
H    -2.336000000    -0.567000000     5.230000000
C     0.240000000     0.079000000     4.563000000
O     1.557000000     0.489000000     5.108000000
H     0.404000000     0.117000000     3.476000000
O    -0.014000000    -1.246000000     4.954000000
C     0.287000000    -2.231000000     3.997000000
C    -0.774000000    -2.774000000     3.311000000
H    -1.817000000    -2.524000000     3.481000000
C    -0.552000000    -3.749000000     2.343000000
O    -1.689000000    -4.136000000     1.643000000
C     0.797000000    -4.141000000     2.074000000
C     1.049000000    -5.301000000     0.998000000
H     2.037000000    -5.723000000     1.192000000
C     1.185000000    -4.723000000    -0.384000000
C     2.433000000    -4.317000000    -0.813000000
H     3.304000000    -4.510000000    -0.191000000
H     0.288000000    -6.080000000     0.928000000
C     1.856000000    -3.673000000     2.823000000
H     2.883000000    -3.902000000     2.551000000
C     1.598000000    -2.649000000     3.747000000
C     2.751000000    -2.088000000     4.434000000
H     3.550000000    -2.829000000     4.366000000
H     2.548000000    -2.041000000     5.506000000
C     3.127000000    -0.751000000     3.809000000
C     4.066000000    -0.655000000     2.813000000
H     4.468000000    -1.565000000     2.376000000
C     2.593000000     0.463000000     4.208000000
C     2.902000000     1.677000000     3.634000000
H     2.320000000     2.560000000     3.886000000
C     3.724000000     1.657000000     2.469000000
O     3.661000000     2.735000000     1.625000000
C     2.918000000     2.591000000     0.311000000
C     2.114000000     3.815000000    -0.117000000
C     1.729000000     3.936000000    -1.485000000
H     2.003000000     3.186000000    -2.223000000
C     1.809000000     4.818000000     0.755000000
H     2.246000000     4.777000000     1.749000000
O     3.914000000     2.285000000    -0.694000000
H     2.212000000     1.764000000     0.473000000
C     4.401000000     0.496000000     2.145000000
C     5.310000000     0.391000000     0.938000000
H     6.063000000    -0.375000000     1.134000000
H     5.959000000     1.248000000     0.747000000
C     4.547000000     0.028000000    -0.355000000
C     4.450000000    -1.287000000    -0.739000000
H     4.937000000    -2.099000000    -0.204000000
C     4.080000000     1.021000000    -1.186000000
C     3.562000000     0.715000000    -2.442000000
H     3.176000000     1.572000000    -2.987000000
C     3.453000000    -0.631000000    -2.867000000
O     2.857000000    -0.900000000    -4.030000000
C     1.506000000    -1.329000000    -3.914000000
C     0.550000000    -0.784000000    -4.950000000
C     0.681000000     0.515000000    -5.480000000
H     1.637000000     0.985000000    -5.267000000
C    -0.598000000    -1.514000000    -5.352000000
H    -0.817000000    -2.513000000    -4.983000000
O     1.579000000    -2.785000000    -4.085000000
H     1.113000000    -1.146000000    -2.904000000
C     3.894000000    -1.586000000    -1.936000000
C     3.984000000    -3.054000000    -2.388000000
H     4.900000000    -3.541000000    -2.045000000
H     4.133000000    -3.211000000    -3.458000000
C     2.595000000    -3.684000000    -2.045000000
C     1.494000000    -3.490000000    -2.849000000
C     0.279000000    -3.996000000    -2.459000000
H    -0.559000000    -3.818000000    -3.129000000
C     0.068000000    -4.565000000    -1.188000000
O    -1.224000000    -4.675000000    -0.672000000
C    -1.689000000    -3.674000000     0.280000000
H    -1.023000000    -2.800000000     0.245000000
C    -3.057000000    -3.105000000    -0.017000000
C    -3.778000000    -2.329000000     0.908000000
H    -3.312000000    -2.286000000     1.889000000
C    -3.550000000    -3.148000000    -1.302000000
H    -3.064000000    -3.593000000    -2.167000000
C    -4.733000000    -2.528000000    -1.692000000
O    -5.256000000    -2.642000000    -2.987000000
C    -5.376000000    -1.687000000    -0.744000000
H    -6.269000000    -1.123000000    -1.002000000
C    -4.930000000    -1.615000000     0.585000000
O    -5.568000000    -0.819000000     1.496000000
C    -5.564000000    -0.991000000     2.849000000
C    -5.208000000     0.089000000     3.637000000
H    -4.979000000     1.062000000     3.209000000
C    -5.867000000    -2.181000000     3.532000000
H    -6.139000000    -3.027000000     2.906000000
C    -5.932000000    -2.290000000     4.948000000
H    -6.174000000    -3.252000000     5.393000000
C    -5.546000000    -1.181000000     5.702000000
H    -5.459000000    -1.260000000     6.783000000
C    -5.051000000    -0.063000000     5.010000000
O    -4.454000000     0.999000000     5.723000000
C    -3.202000000     1.414000000     5.395000000
C    -2.950000000     2.791000000     5.297000000
H    -3.646000000     3.608000000     5.468000000
C    -1.715000000     3.243000000     5.031000000
O    -1.613000000     4.633000000     5.033000000
C    -0.616000000     5.387000000     4.516000000
C    -0.638000000     5.723000000     3.185000000
H    -1.527000000     5.563000000     2.580000000
C     0.387000000     5.835000000     5.339000000
H     0.342000000     5.602000000     6.400000000
C     1.494000000     6.508000000     4.790000000
H     2.295000000     6.710000000     5.496000000
C     1.532000000     6.853000000     3.478000000
H     2.419000000     7.358000000     3.105000000
C     0.449000000     6.421000000     2.678000000
O     0.531000000     6.792000000     1.352000000
C     0.963000000     5.890000000     0.377000000
C     0.463000000     5.885000000    -0.908000000
H    -0.169000000     6.656000000    -1.339000000
C     0.830000000     4.915000000    -1.838000000
O     0.545000000     5.108000000    -3.128000000
C     1.142000000     4.483000000    -4.172000000
C     0.242000000     3.852000000    -5.056000000
H    -0.809000000     3.769000000    -4.793000000
C     2.548000000     4.556000000    -4.490000000
H     3.230000000     5.103000000    -3.844000000
C     3.032000000     3.902000000    -5.649000000
H     4.058000000     3.974000000    -6.001000000
C     2.071000000     3.274000000    -6.478000000
H     2.369000000     2.825000000    -7.421000000
C     0.738000000     3.186000000    -6.127000000
O    -0.096000000     2.386000000    -6.895000000
C    -0.209000000     1.095000000    -6.403000000
C    -1.242000000     0.217000000    -6.842000000
H    -1.883000000     0.720000000    -7.561000000
C    -1.442000000    -1.001000000    -6.300000000
O    -2.479000000    -1.723000000    -6.812000000
C    -3.100000000    -2.618000000    -5.990000000
C    -2.995000000    -3.986000000    -6.223000000
H    -2.399000000    -4.327000000    -7.066000000
C    -3.618000000    -4.897000000    -5.418000000
H    -3.489000000    -5.954000000    -5.636000000
C    -4.367000000    -4.422000000    -4.362000000
H    -4.822000000    -5.022000000    -3.579000000
C    -4.471000000    -3.062000000    -4.089000000
C    -3.932000000    -2.090000000    -4.938000000
H    -4.189000000    -1.037000000    -4.866000000
C    -2.563000000     1.728000000     0.132000000
H    -3.530000000     1.863000000     0.610000000
C    -1.591000000     0.871000000     0.713000000
H    -1.802000000     0.398000000     1.669000000
C    -0.384000000     0.493000000     0.043000000
C     0.600000000    -0.435000000     0.684000000
H     0.069000000    -1.324000000     1.031000000
H     1.244000000    -0.746000000    -0.141000000
H     1.240000000     0.016000000     1.445000000
C    -0.186000000     0.998000000    -1.218000000
H     0.777000000     0.805000000    -1.684000000
C    -1.046000000     1.977000000    -1.687000000
H    -0.907000000     2.426000000    -2.667000000
C    -2.313000000     2.255000000    -1.091000000
C    -3.340000000     3.302000000    -1.618000000
O    -3.156000000     3.791000000    -2.694000000
O    -4.382000000     3.417000000    -1.026000000
O    -3.235000000     2.266000000    -4.803000000
H    -2.859000000     1.608000000    -4.218000000
H    -3.090000000     3.098000000    -4.352000000
O    -9.227000000     3.495000000     0.566000000
H    -9.615000000     2.637000000     0.734000000
H    -8.757000000     3.388000000    -0.261000000
O    -8.501000000     4.877000000    -2.803000000
H    -8.574000000     5.164000000    -3.713000000
H    -7.753000000     4.279000000    -2.801000000
O    -3.141000000     7.546000000    -0.817000000
H    -3.327000000     8.349000000    -1.304000000
H    -4.000000000     7.150000000    -0.671000000
O    -7.030000000     7.017000000    -4.476000000
H    -6.535000000     6.376000000    -3.967000000
H    -7.589000000     6.490000000    -5.047000000
O    -5.941000000     2.641000000     1.444000000
H    -5.285000000     2.469000000     0.768000000
H    -6.513000000     1.874000000     1.423000000
O    -4.707000000     5.994000000     4.046000000
H    -5.243000000     5.206000000     4.132000000
H    -4.154000000     5.826000000     3.282000000
O    -5.643000000     1.087000000    -6.169000000
H    -4.813000000     1.089000000    -5.691000000
H    -5.408000000     0.811000000    -7.055000000
O    -7.499000000     7.791000000    -1.181000000
H    -6.728000000     7.225000000    -1.158000000
H    -8.241000000     7.189000000    -1.124000000
O    -7.222000000     5.389000000     1.708000000
H    -7.033000000     4.481000000     1.470000000
H    -7.480000000     5.347000000     2.629000000
O    -2.424000000     6.240000000    -3.256000000
H    -2.502000000     5.292000000    -3.149000000
H    -2.280000000     6.570000000    -2.369000000
O    -3.918000000     4.485000000     1.670000000
H    -4.700000000     4.090000000     2.057000000
H    -3.749000000     3.963000000     0.886000000
O    -1.039000000     8.104000000    -5.001000000
H    -1.051000000     8.625000000    -4.198000000
H    -1.505000000     7.300000000    -4.773000000
O    -7.168000000     2.761000000    -1.368000000
H    -6.224000000     2.906000000    -1.422000000
H    -7.350000000     2.112000000    -2.048000000
O    -4.777000000     8.907000000    -3.730000000
H    -4.778000000     9.042000000    -4.677000000
H    -4.941000000     7.971000000    -3.621000000
O    -5.420000000     5.782000000    -0.531000000
H    -6.067000000     5.694000000     0.169000000
H    -4.810000000     5.059000000    -0.387000000
O    -7.864000000     0.794000000    -3.492000000
H    -8.207000000     0.439000000    -2.672000000
H    -8.005000000     0.097000000    -4.132000000
O    -3.081000000     4.971000000    -6.633000000
H    -2.962000000     5.041000000    -7.580000000
H    -2.347000000     4.432000000    -6.339000000
O    -5.482000000     5.072000000    -3.230000000
H    -5.661000000     5.152000000    -2.293000000
H    -4.570000000     4.786000000    -3.276000000
