218
-1452.40264
C    -0.588000000     2.232000000     5.096000000
H     0.455000000     2.280000000     5.401000000
C    -1.105000000     1.077000000     4.599000000
C    -2.417000000     1.072000000     4.153000000
H    -2.821000000     0.145000000     3.755000000
C    -0.293000000    -0.129000000     4.291000000
O     1.060000000    -0.046000000     4.792000000
H    -0.252000000    -0.139000000     3.191000000
O    -0.872000000    -1.429000000     4.700000000
C    -0.666000000    -2.517000000     3.900000000
C    -1.698000000    -2.969000000     3.080000000
H    -2.666000000    -2.492000000     3.211000000
C    -1.561000000    -3.885000000     2.071000000
O    -2.626000000    -4.105000000     1.226000000
C    -0.367000000    -4.528000000     1.877000000
C    -0.175000000    -5.639000000     0.799000000
H     0.609000000    -6.348000000     1.076000000
C     0.128000000    -5.084000000    -0.592000000
C     1.431000000    -4.831000000    -0.920000000
H     2.243000000    -5.043000000    -0.229000000
H    -1.071000000    -6.260000000     0.734000000
C     0.706000000    -4.168000000     2.713000000
H     1.683000000    -4.602000000     2.515000000
C     0.547000000    -3.149000000     3.710000000
C     1.734000000    -2.715000000     4.469000000
H     2.487000000    -3.502000000     4.553000000
H     1.556000000    -2.499000000     5.524000000
C     2.444000000    -1.588000000     3.712000000
C     3.466000000    -1.879000000     2.807000000
H     3.661000000    -2.935000000     2.642000000
C     2.175000000    -0.291000000     4.032000000
C     2.824000000     0.761000000     3.437000000
H     2.571000000     1.792000000     3.669000000
C     3.795000000     0.519000000     2.516000000
O     4.293000000     1.615000000     1.837000000
C     3.824000000     1.775000000     0.491000000
C     3.582000000     3.218000000     0.138000000
C     3.712000000     3.743000000    -1.123000000
H     4.165000000     3.102000000    -1.875000000
C     2.763000000     3.960000000     1.064000000
H     2.642000000     3.382000000     1.977000000
O     4.761000000     1.144000000    -0.460000000
H     2.812000000     1.348000000     0.439000000
C     4.145000000    -0.850000000     2.228000000
C     5.220000000    -1.199000000     1.230000000
H     5.629000000    -2.174000000     1.504000000
H     6.025000000    -0.490000000     1.432000000
C     4.609000000    -1.232000000    -0.204000000
C     4.387000000    -2.477000000    -0.731000000
H     4.628000000    -3.441000000    -0.291000000
C     4.492000000    -0.137000000    -0.985000000
C     3.929000000    -0.238000000    -2.256000000
H     3.832000000     0.658000000    -2.864000000
C     3.532000000    -1.430000000    -2.724000000
O     2.858000000    -1.428000000    -3.900000000
C     1.386000000    -1.619000000    -3.843000000
C     0.737000000    -0.592000000    -4.703000000
C     1.449000000     0.456000000    -5.317000000
H     2.517000000     0.428000000    -5.513000000
C    -0.664000000    -0.446000000    -4.607000000
H    -1.265000000    -1.229000000    -4.151000000
O     0.963000000    -2.963000000    -4.122000000
H     0.894000000    -1.372000000    -2.890000000
C     3.781000000    -2.646000000    -2.024000000
C     3.208000000    -3.983000000    -2.446000000
H     3.873000000    -4.775000000    -2.093000000
H     3.389000000    -4.013000000    -3.522000000
C     1.739000000    -4.235000000    -2.199000000
C     0.675000000    -3.709000000    -3.041000000
C    -0.637000000    -3.810000000    -2.610000000
H    -1.400000000    -3.346000000    -3.230000000
C    -0.885000000    -4.567000000    -1.451000000
O    -2.254000000    -4.584000000    -1.112000000
C    -2.634000000    -3.618000000    -0.116000000
H    -1.935000000    -2.773000000    -0.197000000
C    -3.897000000    -2.851000000    -0.469000000
C    -4.636000000    -2.287000000     0.583000000
H    -4.270000000    -2.238000000     1.605000000
C    -4.326000000    -2.682000000    -1.794000000
H    -3.729000000    -3.055000000    -2.623000000
C    -5.599000000    -2.102000000    -1.988000000
O    -6.064000000    -2.066000000    -3.282000000
C    -6.396000000    -1.781000000    -0.926000000
H    -7.385000000    -1.395000000    -1.158000000
C    -5.935000000    -1.811000000     0.360000000
O    -6.802000000    -1.437000000     1.374000000
C    -6.335000000    -0.795000000     2.585000000
C    -5.554000000     0.341000000     2.562000000
H    -5.194000000     0.613000000     1.573000000
C    -6.761000000    -1.359000000     3.785000000
H    -7.393000000    -2.239000000     3.707000000
C    -6.402000000    -0.799000000     5.018000000
H    -6.711000000    -1.324000000     5.918000000
C    -5.646000000     0.411000000     4.997000000
H    -5.429000000     0.924000000     5.930000000
C    -5.278000000     0.991000000     3.784000000
O    -4.489000000     2.116000000     3.866000000
C    -3.235000000     2.151000000     4.308000000
C    -2.643000000     3.305000000     4.729000000
H    -3.262000000     4.192000000     4.623000000
C    -1.371000000     3.334000000     5.177000000
O    -0.909000000     4.560000000     5.636000000
C     0.212000000     5.187000000     5.095000000
C     0.313000000     5.282000000     3.662000000
H    -0.512000000     5.015000000     3.007000000
C     1.220000000     5.714000000     5.877000000
H     1.153000000     5.605000000     6.956000000
C     2.326000000     6.275000000     5.270000000
H     3.127000000     6.589000000     5.935000000
C     2.420000000     6.420000000     3.907000000
H     3.289000000     6.910000000     3.474000000
C     1.407000000     5.914000000     3.043000000
O     1.502000000     6.014000000     1.668000000
C     2.159000000     5.181000000     0.776000000
C     2.327000000     5.639000000    -0.517000000
H     1.701000000     6.412000000    -0.955000000
C     3.121000000     4.956000000    -1.515000000
O     3.167000000     5.436000000    -2.709000000
C     3.352000000     4.658000000    -3.878000000
C     2.301000000     4.025000000    -4.561000000
H     1.253000000     4.122000000    -4.291000000
C     4.651000000     4.607000000    -4.376000000
H     5.442000000     5.212000000    -3.941000000
C     4.915000000     3.773000000    -5.427000000
H     5.933000000     3.673000000    -5.793000000
C     3.895000000     2.996000000    -6.004000000
H     4.107000000     2.293000000    -6.804000000
C     2.616000000     3.170000000    -5.604000000
O     1.537000000     2.579000000    -6.363000000
C     0.796000000     1.531000000    -5.859000000
C    -0.612000000     1.634000000    -5.722000000
H    -1.193000000     2.444000000    -6.156000000
C    -1.345000000     0.589000000    -5.231000000
O    -2.752000000     0.700000000    -5.214000000
C    -3.558000000    -0.385000000    -5.363000000
C    -3.379000000    -1.236000000    -6.459000000
H    -2.676000000    -1.071000000    -7.271000000
C    -4.245000000    -2.278000000    -6.491000000
H    -4.395000000    -2.852000000    -7.402000000
C    -5.151000000    -2.469000000    -5.431000000
H    -5.838000000    -3.297000000    -5.584000000
C    -5.200000000    -1.748000000    -4.242000000
C    -4.409000000    -0.623000000    -4.259000000
H    -4.430000000     0.064000000    -3.417000000
C    -2.261000000     0.587000000    -0.263000000
H    -3.308000000     0.501000000     0.019000000
C    -1.248000000    -0.216000000     0.250000000
H    -1.404000000    -0.943000000     1.044000000
C     0.099000000    -0.118000000    -0.155000000
C     1.037000000    -1.152000000     0.453000000
H     1.957000000    -1.421000000    -0.070000000
H     1.288000000    -0.781000000     1.449000000
H     0.579000000    -2.124000000     0.644000000
C     0.430000000     0.780000000    -1.187000000
H     1.423000000     0.814000000    -1.627000000
C    -0.587000000     1.659000000    -1.645000000
H    -0.439000000     2.406000000    -2.420000000
C    -1.890000000     1.552000000    -1.186000000
C    -2.968000000     2.584000000    -1.644000000
O    -2.524000000     3.644000000    -1.988000000
O    -4.135000000     2.471000000    -1.248000000
O    -8.142000000     3.335000000    -4.950000000
H    -8.042000000     2.393000000    -4.814000000
H    -8.615000000     3.408000000    -5.779000000
O    -4.350000000     4.780000000    -7.426000000
H    -3.456000000     5.023000000    -7.184000000
H    -4.811000000     4.699000000    -6.592000000
O    -8.005000000     2.808000000     1.395000000
H    -7.548000000     3.428000000     1.964000000
H    -7.876000000     3.154000000     0.512000000
O    -4.660000000     8.472000000    -2.783000000
H    -4.876000000     8.053000000    -3.616000000
H    -4.061000000     7.860000000    -2.355000000
O    -0.482000000     2.925000000     1.437000000
H    -1.168000000     2.821000000     2.096000000
H    -0.510000000     2.114000000     0.930000000
O    -7.807000000     0.685000000    -4.324000000
H    -7.510000000    -0.218000000    -4.435000000
H    -7.400000000     0.973000000    -3.508000000
O    -1.965000000     5.343000000    -3.876000000
H    -2.056000000     4.553000000    -3.343000000
H    -2.073000000     6.064000000    -3.255000000
O    -3.158000000     7.079000000    -0.958000000
H    -2.967000000     7.984000000    -0.713000000
H    -2.396000000     6.584000000    -0.659000000
O    -0.162000000     7.860000000    -2.426000000
H    -0.307000000     8.794000000    -2.581000000
H    -0.246000000     7.759000000    -1.478000000
O    -5.389000000     1.982000000    -7.282000000
H    -5.564000000     2.811000000    -6.836000000
H    -4.820000000     1.502000000    -6.680000000
O    -5.335000000     4.818000000    -1.876000000
H    -4.856000000     3.993000000    -1.804000000
H    -4.659000000     5.493000000    -1.816000000
O    -7.261000000     6.761000000    -3.214000000
H    -6.637000000     6.038000000    -3.148000000
H    -7.652000000     6.660000000    -4.082000000
O    -6.619000000     1.538000000    -2.041000000
H    -7.204000000     2.097000000    -1.529000000
H    -5.743000000     1.876000000    -1.855000000
O    -7.695000000     4.473000000    -0.800000000
H    -6.812000000     4.783000000    -1.000000000
H    -8.177000000     4.577000000    -1.621000000
O    -3.375000000     6.007000000     2.020000000
H    -3.863000000     5.193000000     2.144000000
H    -3.659000000     6.329000000     1.165000000
O    -1.879000000     5.996000000    -6.567000000
H    -1.010000000     6.383000000    -6.675000000
H    -1.955000000     5.836000000    -5.626000000
O    -0.946000000     5.085000000    -0.269000000
H    -0.654000000     4.440000000     0.375000000
H    -1.332000000     4.562000000    -0.973000000
O    -5.474000000     4.123000000    -5.186000000
H    -6.374000000     3.871000000    -4.982000000
H    -5.109000000     4.408000000    -4.348000000
O    -4.792000000     3.786000000     1.153000000
H    -4.702000000     3.616000000     0.216000000
H    -4.691000000     2.927000000     1.563000000
