218
-1465.07888
C    -0.589000000     2.337000000     4.553000000
H     0.356000000     2.837000000     4.352000000
C    -0.838000000     1.021000000     4.231000000
C    -2.136000000     0.502000000     4.186000000
H    -2.239000000    -0.495000000     3.764000000
C     0.280000000     0.053000000     3.968000000
O     1.494000000     0.698000000     4.465000000
H     0.288000000    -0.161000000     2.889000000
O     0.174000000    -1.226000000     4.698000000
C     0.610000000    -2.376000000     3.950000000
C    -0.359000000    -3.022000000     3.248000000
H    -1.406000000    -2.906000000     3.519000000
C     0.006000000    -4.027000000     2.320000000
O    -0.952000000    -4.710000000     1.699000000
C     1.369000000    -4.210000000     2.039000000
C     1.716000000    -5.277000000     0.947000000
H     2.670000000    -5.783000000     1.106000000
C     1.661000000    -4.719000000    -0.457000000
C     2.871000000    -4.265000000    -0.999000000
H     3.803000000    -4.349000000    -0.445000000
H     0.974000000    -6.077000000     0.979000000
C     2.347000000    -3.487000000     2.653000000
H     3.360000000    -3.697000000     2.320000000
C     1.978000000    -2.557000000     3.617000000
C     3.117000000    -1.714000000     4.226000000
H     4.024000000    -2.306000000     4.365000000
H     2.748000000    -1.410000000     5.208000000
C     3.327000000    -0.423000000     3.446000000
C     4.391000000    -0.352000000     2.501000000
H     4.852000000    -1.282000000     2.180000000
C     2.575000000     0.734000000     3.625000000
C     2.733000000     1.844000000     2.771000000
H     2.034000000     2.663000000     2.920000000
C     3.836000000     1.881000000     1.913000000
O     3.841000000     2.957000000     1.126000000
C     3.206000000     2.854000000    -0.157000000
C     2.402000000     4.120000000    -0.494000000
C     2.159000000     4.550000000    -1.802000000
H     2.493000000     3.997000000    -2.676000000
C     1.869000000     4.840000000     0.600000000
H     2.070000000     4.560000000     1.630000000
O     4.208000000     2.521000000    -1.163000000
H     2.444000000     2.063000000    -0.099000000
C     4.585000000     0.762000000     1.675000000
C     5.595000000     0.590000000     0.548000000
H     6.269000000    -0.193000000     0.900000000
H     6.079000000     1.556000000     0.391000000
C     4.962000000     0.239000000    -0.850000000
C     4.875000000    -1.134000000    -1.238000000
H     5.381000000    -1.903000000    -0.660000000
C     4.350000000     1.200000000    -1.640000000
C     3.887000000     0.857000000    -2.912000000
H     3.579000000     1.607000000    -3.636000000
C     3.615000000    -0.473000000    -3.190000000
O     2.661000000    -0.786000000    -4.157000000
C     1.422000000    -1.324000000    -3.751000000
C     0.201000000    -0.529000000    -4.263000000
C     0.477000000     0.637000000    -4.971000000
H     1.522000000     0.878000000    -5.147000000
C    -1.092000000    -0.937000000    -3.900000000
H    -1.245000000    -1.827000000    -3.295000000
O     1.424000000    -2.714000000    -4.020000000
H     1.350000000    -1.168000000    -2.664000000
C     4.066000000    -1.463000000    -2.325000000
C     4.038000000    -2.985000000    -2.804000000
H     4.981000000    -3.435000000    -2.488000000
H     3.986000000    -3.156000000    -3.882000000
C     2.778000000    -3.709000000    -2.252000000
C     1.632000000    -3.570000000    -3.002000000
C     0.480000000    -4.154000000    -2.414000000
H    -0.453000000    -4.031000000    -2.957000000
C     0.468000000    -4.819000000    -1.202000000
O    -0.750000000    -5.207000000    -0.692000000
C    -1.393000000    -4.392000000     0.342000000
H    -1.236000000    -3.357000000     0.004000000
C    -2.900000000    -4.513000000     0.191000000
C    -3.677000000    -4.065000000     1.281000000
H    -3.244000000    -3.808000000     2.245000000
C    -3.460000000    -4.619000000    -1.084000000
H    -2.864000000    -4.883000000    -1.953000000
C    -4.800000000    -4.378000000    -1.299000000
O    -5.355000000    -4.562000000    -2.541000000
C    -5.637000000    -3.929000000    -0.217000000
H    -6.666000000    -3.607000000    -0.351000000
C    -5.042000000    -3.785000000     1.031000000
O    -5.845000000    -3.192000000     2.074000000
C    -5.503000000    -2.551000000     3.251000000
C    -5.077000000    -1.221000000     3.356000000
H    -4.915000000    -0.643000000     2.450000000
C    -5.797000000    -3.183000000     4.379000000
H    -6.064000000    -4.228000000     4.242000000
C    -5.650000000    -2.566000000     5.689000000
H    -5.918000000    -3.120000000     6.585000000
C    -5.155000000    -1.270000000     5.771000000
H    -4.910000000    -0.798000000     6.719000000
C    -4.880000000    -0.588000000     4.590000000
O    -4.497000000     0.729000000     4.710000000
C    -3.211000000     1.242000000     4.711000000
C    -2.933000000     2.569000000     5.065000000
H    -3.682000000     3.260000000     5.443000000
C    -1.671000000     3.087000000     4.953000000
O    -1.571000000     4.481000000     4.924000000
C    -0.558000000     5.289000000     4.459000000
C    -0.560000000     5.617000000     3.096000000
H    -1.235000000     5.132000000     2.395000000
C     0.295000000     5.878000000     5.396000000
H     0.245000000     5.666000000     6.461000000
C     1.313000000     6.716000000     4.911000000
H     2.074000000     7.103000000     5.584000000
C     1.344000000     6.979000000     3.510000000
H     2.156000000     7.610000000     3.157000000
C     0.442000000     6.444000000     2.655000000
O     0.589000000     6.814000000     1.365000000
C     1.038000000     5.955000000     0.354000000
C     0.706000000     6.305000000    -0.924000000
H     0.063000000     7.168000000    -1.072000000
C     1.326000000     5.659000000    -2.011000000
O     0.955000000     6.059000000    -3.226000000
C     1.079000000     5.290000000    -4.381000000
C     0.244000000     4.235000000    -4.723000000
H    -0.595000000     3.917000000    -4.109000000
C     2.118000000     5.513000000    -5.233000000
H     2.856000000     6.269000000    -4.977000000
C     2.435000000     4.750000000    -6.358000000
H     3.323000000     4.964000000    -6.947000000
C     1.550000000     3.745000000    -6.717000000
H     1.826000000     2.967000000    -7.425000000
C     0.429000000     3.489000000    -5.915000000
O    -0.391000000     2.462000000    -6.256000000
C    -0.594000000     1.382000000    -5.416000000
C    -1.917000000     0.999000000    -5.055000000
H    -2.769000000     1.642000000    -5.261000000
C    -2.172000000    -0.163000000    -4.333000000
O    -3.491000000    -0.424000000    -3.962000000
C    -4.005000000    -1.644000000    -4.315000000
C    -4.340000000    -1.878000000    -5.668000000
H    -4.151000000    -1.128000000    -6.432000000
C    -5.057000000    -3.069000000    -5.951000000
H    -5.442000000    -3.400000000    -6.912000000
C    -5.383000000    -3.948000000    -4.912000000
H    -5.973000000    -4.834000000    -5.131000000
C    -4.922000000    -3.756000000    -3.600000000
C    -4.187000000    -2.593000000    -3.329000000
H    -3.986000000    -2.336000000    -2.292000000
C    -2.534000000    -0.085000000    -0.236000000
H    -3.473000000    -0.397000000     0.214000000
C    -1.344000000    -0.623000000     0.167000000
H    -1.419000000    -1.408000000     0.915000000
C    -0.148000000    -0.271000000    -0.328000000
C     1.106000000    -0.937000000     0.141000000
H     0.902000000    -1.733000000     0.861000000
H     1.623000000    -1.453000000    -0.670000000
H     1.762000000    -0.244000000     0.671000000
C    -0.120000000     0.851000000    -1.144000000
H     0.787000000     1.241000000    -1.599000000
C    -1.299000000     1.461000000    -1.582000000
H    -1.152000000     2.276000000    -2.286000000
C    -2.555000000     0.998000000    -1.173000000
C    -3.814000000     1.766000000    -1.518000000
O    -3.845000000     2.724000000    -2.233000000
O    -4.853000000     1.429000000    -1.012000000
O    -8.168000000     5.082000000    -3.174000000
H    -7.356000000     4.776000000    -2.770000000
H    -8.181000000     6.023000000    -3.002000000
O    -8.765000000     2.596000000    -4.613000000
H    -8.733000000     3.521000000    -4.371000000
H    -8.032000000     2.200000000    -4.142000000
O    -2.240000000     7.088000000     0.548000000
H    -1.382000000     7.342000000     0.888000000
H    -2.117000000     6.195000000     0.227000000
O    -0.626000000     2.915000000     0.701000000
H    -0.712000000     2.107000000     0.194000000
H    -0.805000000     3.613000000     0.071000000
O    -5.034000000     1.687000000    -7.440000000
H    -5.425000000     2.398000000    -6.932000000
H    -5.740000000     1.049000000    -7.541000000
O    -9.085000000    -1.270000000    -1.887000000
H    -9.504000000    -1.473000000    -1.051000000
H    -8.608000000    -0.456000000    -1.725000000
O    -6.099000000     3.481000000    -5.479000000
H    -6.009000000     2.708000000    -4.921000000
H    -5.485000000     4.116000000    -5.109000000
O    -6.252000000     4.027000000    -1.664000000
H    -6.460000000     3.607000000    -0.829000000
H    -5.496000000     3.541000000    -1.995000000
O    -8.677000000    -0.702000000     1.360000000
H    -9.357000000    -1.177000000     0.882000000
H    -8.144000000    -0.294000000     0.677000000
O    -6.890000000     2.589000000     0.860000000
H    -6.915000000     2.750000000     1.803000000
H    -6.103000000     2.062000000     0.727000000
O    -3.587000000     4.528000000    -4.489000000
H    -3.557000000     3.785000000    -3.886000000
H    -2.981000000     5.167000000    -4.113000000
O    -1.950000000     4.705000000    -1.180000000
H    -1.855000000     5.427000000    -1.802000000
H    -2.668000000     4.179000000    -1.530000000
O    -5.421000000     7.122000000    -5.058000000
H    -5.200000000     8.052000000    -5.105000000
H    -5.349000000     6.905000000    -4.129000000
O    -2.403000000     6.650000000    -3.336000000
H    -3.242000000     6.878000000    -2.936000000
H    -1.809000000     7.348000000    -3.061000000
O    -7.553000000     0.686000000    -0.965000000
H    -7.936000000     1.424000000    -0.492000000
H    -6.611000000     0.853000000    -0.948000000
O    -4.958000000     6.694000000    -2.376000000
H    -5.262000000     5.811000000    -2.167000000
H    -5.543000000     7.272000000    -1.885000000
O    -5.577000000     3.205000000     3.236000000
H    -5.555000000     4.112000000     3.539000000
H    -4.659000000     2.980000000     3.083000000
O    -5.800000000     1.472000000    -3.744000000
H    -5.106000000     0.870000000    -4.014000000
H    -5.491000000     1.836000000    -2.914000000
O    -3.194000000     2.669000000     1.807000000
H    -3.627000000     2.688000000     0.954000000
H    -2.264000000     2.775000000     1.607000000
