218
-1447.29758
C     0.457000000     2.668000000     4.044000000
H     1.171000000     3.154000000     3.385000000
C     0.446000000     1.239000000     4.242000000
C    -0.556000000     0.756000000     5.143000000
H    -0.523000000    -0.307000000     5.368000000
C     1.577000000     0.419000000     3.715000000
O     2.812000000     1.063000000     3.645000000
H     1.294000000     0.024000000     2.728000000
O     1.712000000    -0.809000000     4.485000000
C     1.757000000    -1.977000000     3.750000000
C     0.633000000    -2.763000000     3.813000000
H    -0.192000000    -2.496000000     4.468000000
C     0.541000000    -3.763000000     2.816000000
O    -0.722000000    -4.282000000     2.526000000
C     1.678000000    -4.128000000     2.080000000
C     1.676000000    -5.229000000     1.063000000
H     2.635000000    -5.749000000     1.095000000
C     1.192000000    -4.773000000    -0.325000000
C     2.130000000    -4.298000000    -1.251000000
H     3.188000000    -4.251000000    -1.009000000
H     0.947000000    -6.020000000     1.254000000
C     2.855000000    -3.375000000     2.196000000
H     3.730000000    -3.675000000     1.624000000
C     2.882000000    -2.275000000     3.000000000
C     4.251000000    -1.529000000     3.111000000
H     5.047000000    -2.223000000     2.835000000
H     4.497000000    -1.324000000     4.155000000
C     4.311000000    -0.298000000     2.258000000
C     4.995000000    -0.435000000     1.054000000
H     5.292000000    -1.435000000     0.749000000
C     3.750000000     0.913000000     2.623000000
C     3.777000000     1.975000000     1.742000000
H     3.325000000     2.912000000     2.057000000
C     4.412000000     1.831000000     0.512000000
O     4.366000000     2.853000000    -0.352000000
C     3.250000000     2.627000000    -1.287000000
C     2.410000000     3.930000000    -1.402000000
C     1.819000000     4.168000000    -2.663000000
H     1.967000000     3.439000000    -3.456000000
C     2.166000000     4.789000000    -0.325000000
H     2.664000000     4.554000000     0.612000000
O     3.777000000     2.252000000    -2.613000000
H     2.532000000     1.921000000    -0.845000000
C     5.039000000     0.607000000     0.187000000
C     5.505000000     0.393000000    -1.242000000
H     6.344000000    -0.299000000    -1.342000000
H     6.011000000     1.312000000    -1.547000000
C     4.386000000    -0.025000000    -2.203000000
C     4.108000000    -1.425000000    -2.422000000
H     4.632000000    -2.092000000    -1.743000000
C     3.554000000     0.915000000    -2.831000000
C     2.497000000     0.578000000    -3.592000000
H     1.869000000     1.314000000    -4.088000000
C     2.287000000    -0.798000000    -3.826000000
O     1.232000000    -1.120000000    -4.615000000
C     0.019000000    -1.561000000    -3.862000000
C    -1.211000000    -0.869000000    -4.471000000
C    -1.186000000     0.393000000    -5.053000000
H    -0.235000000     0.918000000    -5.003000000
C    -2.470000000    -1.517000000    -4.319000000
H    -2.676000000    -2.467000000    -3.832000000
O     0.036000000    -3.033000000    -3.916000000
H     0.002000000    -1.170000000    -2.834000000
C     3.118000000    -1.808000000    -3.377000000
C     2.760000000    -3.310000000    -3.553000000
H     3.663000000    -3.877000000    -3.317000000
H     2.504000000    -3.561000000    -4.585000000
C     1.726000000    -3.760000000    -2.459000000
C     0.422000000    -3.603000000    -2.722000000
C    -0.577000000    -4.018000000    -1.830000000
H    -1.634000000    -3.889000000    -2.048000000
C    -0.128000000    -4.644000000    -0.589000000
O    -1.193000000    -4.885000000     0.275000000
C    -1.387000000    -3.909000000     1.321000000
H    -0.951000000    -2.962000000     0.971000000
C    -2.856000000    -3.523000000     1.506000000
C    -3.297000000    -3.006000000     2.696000000
H    -2.546000000    -3.005000000     3.481000000
C    -3.753000000    -3.546000000     0.457000000
H    -3.450000000    -3.908000000    -0.522000000
C    -5.054000000    -3.057000000     0.517000000
O    -5.922000000    -3.006000000    -0.557000000
C    -5.535000000    -2.530000000     1.727000000
H    -6.591000000    -2.270000000     1.731000000
C    -4.659000000    -2.542000000     2.849000000
O    -5.078000000    -2.224000000     4.125000000
C    -4.311000000    -1.818000000     5.231000000
C    -3.671000000    -0.615000000     5.153000000
H    -3.631000000    -0.023000000     4.242000000
C    -4.405000000    -2.513000000     6.407000000
H    -4.876000000    -3.493000000     6.408000000
C    -3.866000000    -1.989000000     7.563000000
H    -4.084000000    -2.412000000     8.541000000
C    -3.321000000    -0.726000000     7.574000000
H    -3.052000000    -0.318000000     8.545000000
C    -3.144000000    -0.081000000     6.361000000
O    -2.522000000     1.197000000     6.398000000
C    -1.482000000     1.665000000     5.633000000
C    -1.513000000     2.988000000     5.378000000
H    -2.217000000     3.627000000     5.906000000
C    -0.472000000     3.575000000     4.729000000
O    -0.469000000     4.950000000     4.671000000
C     0.569000000     5.719000000     4.025000000
C     0.430000000     5.970000000     2.659000000
H    -0.562000000     5.862000000     2.227000000
C     1.795000000     6.044000000     4.609000000
H     2.042000000     5.793000000     5.637000000
C     2.831000000     6.607000000     3.866000000
H     3.791000000     6.811000000     4.333000000
C     2.684000000     6.823000000     2.478000000
H     3.514000000     7.166000000     1.865000000
C     1.460000000     6.516000000     1.878000000
O     1.313000000     6.848000000     0.538000000
C     1.502000000     5.986000000    -0.508000000
C     0.995000000     6.271000000    -1.784000000
H     0.391000000     7.160000000    -1.950000000
C     1.071000000     5.393000000    -2.852000000
O     0.298000000     5.617000000    -3.982000000
C     0.137000000     4.687000000    -4.997000000
C    -0.991000000     3.933000000    -5.112000000
H    -1.797000000     4.039000000    -4.390000000
C     1.187000000     4.477000000    -5.898000000
H     2.140000000     4.998000000    -5.847000000
C     1.065000000     3.498000000    -6.907000000
H     1.869000000     3.133000000    -7.542000000
C    -0.111000000     2.768000000    -7.022000000
H    -0.176000000     1.928000000    -7.709000000
C    -1.111000000     2.975000000    -6.128000000
O    -2.274000000     2.224000000    -6.190000000
C    -2.333000000     1.023000000    -5.547000000
C    -3.504000000     0.313000000    -5.522000000
H    -4.382000000     0.815000000    -5.921000000
C    -3.591000000    -0.961000000    -4.965000000
O    -4.892000000    -1.456000000    -4.891000000
C    -5.327000000    -2.424000000    -4.073000000
C    -5.997000000    -3.506000000    -4.615000000
H    -6.106000000    -3.619000000    -5.691000000
C    -6.419000000    -4.535000000    -3.812000000
H    -6.949000000    -5.389000000    -4.224000000
C    -6.380000000    -4.428000000    -2.413000000
H    -6.911000000    -5.146000000    -1.793000000
C    -5.711000000    -3.361000000    -1.847000000
C    -5.130000000    -2.375000000    -2.622000000
H    -4.640000000    -1.468000000    -2.279000000
C    -3.244000000     0.364000000    -0.395000000
H    -4.207000000    -0.035000000    -0.087000000
C    -2.015000000    -0.091000000     0.111000000
H    -2.151000000    -0.844000000     0.884000000
C    -0.833000000     0.475000000    -0.414000000
C     0.522000000    -0.033000000    -0.070000000
H     1.180000000    -0.166000000    -0.931000000
H     1.050000000     0.713000000     0.529000000
H     0.416000000    -0.884000000     0.606000000
C    -0.944000000     1.428000000    -1.428000000
H    -0.013000000     1.695000000    -1.921000000
C    -2.129000000     2.001000000    -1.826000000
H    -2.133000000     2.750000000    -2.614000000
C    -3.358000000     1.360000000    -1.402000000
C    -4.629000000     1.667000000    -2.050000000
O    -4.770000000     2.490000000    -2.923000000
O    -5.602000000     0.993000000    -1.815000000
O    -8.552000000    -2.262000000    -2.226000000
H    -8.035000000    -2.624000000    -1.506000000
H    -9.367000000    -2.762000000    -2.210000000
O    -7.453000000     3.576000000    -0.855000000
H    -6.852000000     3.364000000    -1.569000000
H    -7.794000000     2.728000000    -0.570000000
O    -1.537000000     3.700000000     0.416000000
H    -1.347000000     4.198000000    -0.379000000
H    -1.919000000     2.881000000     0.100000000
O    -6.414000000     3.410000000    -4.606000000
H    -5.866000000     3.210000000    -3.847000000
H    -7.029000000     2.678000000    -4.656000000
O    -6.009000000     3.712000000    -7.526000000
H    -5.163000000     4.156000000    -7.577000000
H    -6.121000000     3.518000000    -6.595000000
O    -5.369000000     6.105000000    -4.374000000
H    -5.691000000     6.358000000    -5.239000000
H    -5.861000000     5.313000000    -4.158000000
O    -7.227000000     0.974000000     0.698000000
H    -6.505000000     1.078000000     0.079000000
H    -6.856000000     1.227000000     1.543000000
O    -9.163000000    -0.663000000     0.049000000
H    -8.357000000    -0.150000000     0.108000000
H    -9.116000000    -1.086000000    -0.808000000
O    -9.168000000    -1.964000000    -4.731000000
H    -8.741000000    -2.222000000    -3.914000000
H    -8.996000000    -2.691000000    -5.331000000
O    -5.825000000     2.084000000     3.037000000
H    -5.219000000     2.669000000     2.583000000
H    -6.385000000     2.668000000     3.547000000
O    -5.580000000     5.199000000     1.431000000
H    -4.974000000     4.490000000     1.647000000
H    -5.147000000     5.678000000     0.725000000
O    -3.393000000     5.233000000    -2.450000000
H    -3.861000000     5.734000000    -3.118000000
H    -3.678000000     4.329000000    -2.583000000
O    -4.096000000     7.260000000    -0.596000000
H    -3.503000000     8.007000000    -0.676000000
H    -3.779000000     6.631000000    -1.244000000
O    -7.233000000     0.548000000    -3.963000000
H    -7.603000000    -0.185000000    -3.471000000
H    -6.482000000     0.832000000    -3.441000000
O    -8.127000000     5.881000000     0.811000000
H    -7.191000000     5.838000000     1.010000000
H    -8.281000000     5.141000000     0.224000000
O    -9.713000000     1.929000000    -5.286000000
H    -9.456000000     1.724000000    -6.185000000
H    -9.208000000     1.319000000    -4.748000000
O    -6.655000000    -0.387000000    -6.795000000
H    -6.973000000     0.507000000    -6.920000000
H    -6.996000000    -0.645000000    -5.939000000
O    -9.711000000     2.652000000     1.862000000
H    -9.651000000     2.119000000     2.655000000
H    -9.152000000     2.202000000     1.229000000
O    -3.644000000     3.363000000     1.999000000
H    -2.959000000     3.732000000     1.442000000
H    -3.210000000     3.201000000     2.836000000
