218
-1447.28718
C     1.383000000     3.273000000     4.044000000
H     2.324000000     3.426000000     3.522000000
C     0.974000000     1.931000000     4.156000000
C    -0.267000000     1.692000000     4.706000000
H    -0.581000000     0.657000000     4.815000000
C     1.852000000     0.742000000     3.758000000
O     3.275000000     1.083000000     3.671000000
H     1.473000000     0.387000000     2.788000000
O     1.550000000    -0.406000000     4.618000000
C     1.459000000    -1.693000000     4.069000000
C     0.170000000    -2.269000000     3.878000000
H    -0.670000000    -1.850000000     4.426000000
C     0.027000000    -3.420000000     3.171000000
O    -1.206000000    -3.987000000     3.006000000
C     1.142000000    -4.078000000     2.653000000
C     0.990000000    -5.278000000     1.758000000
H     1.934000000    -5.821000000     1.680000000
C     0.631000000    -4.836000000     0.331000000
C     1.596000000    -4.684000000    -0.683000000
H     2.624000000    -4.744000000    -0.335000000
H     0.219000000    -5.956000000     2.127000000
C     2.400000000    -3.445000000     2.681000000
H     3.228000000    -3.878000000     2.125000000
C     2.610000000    -2.221000000     3.331000000
C     4.026000000    -1.626000000     3.291000000
H     4.853000000    -2.318000000     3.118000000
H     4.202000000    -1.136000000     4.251000000
C     4.113000000    -0.528000000     2.258000000
C     4.599000000    -0.866000000     1.008000000
H     4.883000000    -1.884000000     0.755000000
C     3.839000000     0.806000000     2.473000000
C     4.036000000     1.755000000     1.558000000
H     3.853000000     2.798000000     1.804000000
C     4.478000000     1.363000000     0.291000000
O     4.383000000     2.270000000    -0.713000000
C     3.269000000     2.150000000    -1.621000000
C     2.590000000     3.486000000    -1.966000000
C     1.816000000     3.599000000    -3.114000000
H     1.665000000     2.758000000    -3.785000000
C     2.737000000     4.547000000    -1.088000000
H     3.352000000     4.344000000    -0.216000000
O     3.733000000     1.452000000    -2.868000000
H     2.484000000     1.578000000    -1.105000000
C     4.879000000     0.078000000     0.043000000
C     5.372000000    -0.285000000    -1.339000000
H     6.103000000    -1.091000000    -1.246000000
H     5.893000000     0.569000000    -1.778000000
C     4.268000000    -0.797000000    -2.231000000
C     3.835000000    -2.091000000    -2.232000000
H     4.308000000    -2.836000000    -1.597000000
C     3.519000000     0.127000000    -2.989000000
C     2.408000000    -0.313000000    -3.700000000
H     1.747000000     0.340000000    -4.263000000
C     2.139000000    -1.646000000    -3.855000000
O     0.956000000    -1.954000000    -4.491000000
C    -0.238000000    -2.130000000    -3.722000000
C    -1.390000000    -1.353000000    -4.223000000
C    -1.204000000    -0.286000000    -5.111000000
H    -0.198000000    -0.097000000    -5.476000000
C    -2.630000000    -1.497000000    -3.566000000
H    -2.777000000    -2.122000000    -2.689000000
O    -0.536000000    -3.534000000    -3.496000000
H    -0.091000000    -1.738000000    -2.705000000
C     2.800000000    -2.547000000    -3.050000000
C     2.335000000    -3.969000000    -2.969000000
H     3.152000000    -4.591000000    -2.597000000
H     2.081000000    -4.286000000    -3.983000000
C     1.251000000    -4.295000000    -1.949000000
C    -0.085000000    -4.077000000    -2.270000000
C    -1.080000000    -4.360000000    -1.345000000
H    -2.132000000    -4.222000000    -1.581000000
C    -0.695000000    -4.761000000    -0.072000000
O    -1.731000000    -4.846000000     0.823000000
C    -1.949000000    -3.758000000     1.734000000
H    -1.572000000    -2.843000000     1.254000000
C    -3.433000000    -3.421000000     2.009000000
C    -3.689000000    -2.604000000     3.069000000
H    -2.900000000    -2.423000000     3.794000000
C    -4.447000000    -3.619000000     1.041000000
H    -4.212000000    -4.128000000     0.109000000
C    -5.724000000    -3.205000000     1.299000000
O    -6.611000000    -3.420000000     0.302000000
C    -6.039000000    -2.430000000     2.400000000
H    -7.056000000    -2.130000000     2.642000000
C    -4.999000000    -2.111000000     3.232000000
O    -5.291000000    -1.251000000     4.287000000
C    -4.341000000    -0.722000000     5.088000000
C    -3.906000000     0.573000000     4.843000000
H    -4.353000000     1.167000000     4.051000000
C    -3.673000000    -1.482000000     6.047000000
H    -4.005000000    -2.504000000     6.210000000
C    -2.745000000    -0.896000000     6.898000000
H    -2.459000000    -1.474000000     7.773000000
C    -2.428000000     0.419000000     6.760000000
H    -1.726000000     0.896000000     7.439000000
C    -2.991000000     1.162000000     5.758000000
O    -2.505000000     2.444000000     5.421000000
C    -1.147000000     2.674000000     5.112000000
C    -0.784000000     3.997000000     4.969000000
H    -1.480000000     4.783000000     5.249000000
C     0.442000000     4.288000000     4.415000000
O     0.563000000     5.549000000     4.009000000
C     1.643000000     5.897000000     3.215000000
C     1.489000000     5.861000000     1.813000000
H     0.560000000     5.404000000     1.484000000
C     2.570000000     6.806000000     3.689000000
H     2.659000000     6.802000000     4.772000000
C     3.437000000     7.457000000     2.830000000
H     4.304000000     7.955000000     3.256000000
C     3.314000000     7.382000000     1.463000000
H     3.945000000     7.880000000     0.731000000
C     2.369000000     6.569000000     0.952000000
O     1.975000000     6.726000000    -0.363000000
C     1.990000000     5.666000000    -1.230000000
C     1.237000000     5.830000000    -2.350000000
H     0.634000000     6.708000000    -2.569000000
C     1.261000000     4.849000000    -3.328000000
O     0.388000000     5.020000000    -4.486000000
C     0.176000000     4.158000000    -5.573000000
C    -0.863000000     3.233000000    -5.484000000
H    -1.610000000     3.274000000    -4.695000000
C     1.113000000     3.974000000    -6.588000000
H     1.991000000     4.614000000    -6.557000000
C     1.013000000     3.055000000    -7.597000000
H     1.834000000     3.026000000    -8.308000000
C    -0.116000000     2.225000000    -7.570000000
H    -0.238000000     1.477000000    -8.349000000
C    -1.005000000     2.264000000    -6.529000000
O    -2.056000000     1.348000000    -6.556000000
C    -2.243000000     0.494000000    -5.545000000
C    -3.483000000     0.301000000    -5.006000000
H    -4.377000000     0.849000000    -5.293000000
C    -3.717000000    -0.704000000    -4.033000000
O    -4.911000000    -0.797000000    -3.336000000
C    -5.478000000    -1.957000000    -2.833000000
C    -5.609000000    -3.070000000    -3.668000000
H    -5.324000000    -3.004000000    -4.715000000
C    -6.142000000    -4.259000000    -3.242000000
H    -6.245000000    -5.163000000    -3.836000000
C    -6.525000000    -4.338000000    -1.934000000
H    -6.999000000    -5.220000000    -1.511000000
C    -6.304000000    -3.311000000    -1.052000000
C    -5.788000000    -2.098000000    -1.475000000
H    -5.723000000    -1.267000000    -0.777000000
C    -2.779000000     0.147000000     0.222000000
H    -3.616000000     0.043000000     0.909000000
C    -1.589000000    -0.413000000     0.594000000
H    -1.458000000    -0.891000000     1.562000000
C    -0.546000000    -0.300000000    -0.293000000
C     0.792000000    -1.032000000    -0.043000000
H     1.461000000    -0.366000000     0.507000000
H     0.678000000    -1.869000000     0.649000000
H     1.259000000    -1.418000000    -0.951000000
C    -0.684000000     0.415000000    -1.536000000
H     0.154000000     0.510000000    -2.221000000
C    -1.860000000     1.104000000    -1.765000000
H    -2.175000000     1.594000000    -2.683000000
C    -2.981000000     0.938000000    -0.908000000
C    -4.324000000     1.547000000    -1.159000000
O    -4.507000000     2.291000000    -2.114000000
O    -5.128000000     1.614000000    -0.257000000
O    -8.452000000    -1.116000000    -3.158000000
H    -8.674000000    -0.879000000    -2.258000000
H    -7.556000000    -0.800000000    -3.275000000
O    -4.433000000     4.350000000    -0.343000000
H    -4.138000000     4.471000000     0.560000000
H    -4.852000000     3.489000000    -0.344000000
O    -6.919000000     4.216000000    -2.105000000
H    -6.126000000     4.438000000    -1.617000000
H    -6.666000000     3.470000000    -2.648000000
O    -6.433000000     2.461000000     2.115000000
H    -6.326000000     2.090000000     1.240000000
H    -7.381000000     2.483000000     2.252000000
O    -5.521000000     6.920000000    -2.965000000
H    -5.621000000     7.728000000    -3.468000000
H    -6.034000000     6.272000000    -3.448000000
O    -4.215000000     3.641000000    -6.678000000
H    -3.458000000     4.115000000    -7.024000000
H    -4.264000000     3.907000000    -5.760000000
O    -9.993000000     2.482000000    -0.680000000
H   -10.665000000     1.822000000    -0.510000000
H   -10.006000000     2.597000000    -1.631000000
O    -9.146000000    -0.667000000     1.333000000
H    -9.848000000    -0.612000000     0.686000000
H    -8.686000000     0.169000000     1.260000000
O    -1.082000000     7.236000000     0.089000000
H    -1.281000000     6.937000000    -0.799000000
H    -1.388000000     6.527000000     0.654000000
O    -7.771000000     1.843000000    -6.523000000
H    -8.378000000     2.554000000    -6.317000000
H    -7.267000000     1.716000000    -5.719000000
O    -7.377000000     1.125000000    -1.456000000
H    -7.894000000     1.891000000    -1.206000000
H    -6.507000000     1.294000000    -1.094000000
O    -7.472000000     0.756000000     4.799000000
H    -7.020000000     0.356000000     5.543000000
H    -6.811000000     0.787000000     4.107000000
O    -2.241000000     5.545000000    -1.765000000
H    -2.028000000     4.813000000    -2.344000000
H    -3.001000000     5.244000000    -1.267000000
O    -4.559000000     4.181000000     2.756000000
H    -5.066000000     3.407000000     2.513000000
H    -5.142000000     4.917000000     2.570000000
O    -3.907000000     4.209000000    -4.049000000
H    -4.181000000     3.585000000    -3.376000000
H    -3.798000000     5.035000000    -3.579000000
O    -6.500000000     1.664000000    -3.945000000
H    -6.969000000     1.419000000    -3.147000000
H    -5.585000000     1.735000000    -3.673000000
O    -2.086000000     5.050000000     1.658000000
H    -2.405000000     5.157000000     2.554000000
H    -2.273000000     4.136000000     1.445000000
O    -5.405000000     7.817000000    -0.424000000
H    -5.375000000     7.292000000    -1.224000000
H    -5.986000000     8.547000000    -0.638000000
O    -9.092000000     2.999000000     1.688000000
H    -9.452000000     3.125000000     0.811000000
H    -9.705000000     2.400000000     2.115000000
