218
-1464.98400
C     2.052000000     2.296000000     3.839000000
H     2.957000000     2.176000000     3.249000000
C     1.302000000     1.219000000     4.366000000
C     0.115000000     1.511000000     5.039000000
H    -0.507000000     0.700000000     5.410000000
C     1.524000000    -0.190000000     3.797000000
O     2.920000000    -0.454000000     3.601000000
H     0.907000000    -0.412000000     2.915000000
O     1.149000000    -1.167000000     4.778000000
C     0.473000000    -2.248000000     4.273000000
C    -0.892000000    -2.066000000     4.117000000
H    -1.344000000    -1.243000000     4.664000000
C    -1.616000000    -2.942000000     3.345000000
O    -2.917000000    -2.595000000     3.045000000
C    -0.959000000    -3.923000000     2.632000000
C    -1.742000000    -4.941000000     1.786000000
H    -1.319000000    -5.946000000     1.741000000
C    -1.901000000    -4.355000000     0.413000000
C    -0.911000000    -4.649000000    -0.509000000
H     0.015000000    -5.067000000    -0.123000000
H    -2.743000000    -5.127000000     2.182000000
C     0.413000000    -4.049000000     2.753000000
H     0.982000000    -4.848000000     2.285000000
C     1.183000000    -3.238000000     3.594000000
C     2.671000000    -3.347000000     3.569000000
H     2.962000000    -4.394000000     3.460000000
H     3.104000000    -3.078000000     4.534000000
C     3.202000000    -2.592000000     2.354000000
C     3.636000000    -3.233000000     1.172000000
H     3.392000000    -4.289000000     1.083000000
C     3.334000000    -1.185000000     2.496000000
C     3.900000000    -0.455000000     1.503000000
H     4.250000000     0.546000000     1.740000000
C     4.549000000    -1.117000000     0.420000000
O     5.020000000    -0.259000000    -0.527000000
C     4.129000000     0.117000000    -1.610000000
C     4.126000000     1.585000000    -2.010000000
C     3.616000000     2.076000000    -3.238000000
H     3.441000000     1.341000000    -4.019000000
C     4.424000000     2.564000000    -0.997000000
H     4.870000000     2.246000000    -0.058000000
O     4.274000000    -0.794000000    -2.759000000
H     3.099000000    -0.055000000    -1.262000000
C     4.332000000    -2.479000000     0.217000000
C     4.648000000    -3.206000000    -1.121000000
H     4.813000000    -4.278000000    -0.992000000
H     5.554000000    -2.802000000    -1.577000000
C     3.467000000    -2.994000000    -2.092000000
C     2.427000000    -3.933000000    -2.097000000
H     2.533000000    -4.847000000    -1.518000000
C     3.362000000    -1.806000000    -2.839000000
C     2.233000000    -1.611000000    -3.647000000
H     2.086000000    -0.705000000    -4.229000000
C     1.278000000    -2.608000000    -3.744000000
O     0.160000000    -2.219000000    -4.414000000
C    -1.028000000    -1.813000000    -3.735000000
C    -1.716000000    -0.685000000    -4.568000000
C    -0.956000000     0.255000000    -5.267000000
H     0.111000000     0.123000000    -5.428000000
C    -3.076000000    -0.609000000    -4.558000000
H    -3.741000000    -1.326000000    -4.084000000
O    -1.873000000    -2.951000000    -3.548000000
H    -0.809000000    -1.449000000    -2.720000000
C     1.321000000    -3.780000000    -2.937000000
C     0.138000000    -4.720000000    -2.860000000
H     0.438000000    -5.706000000    -2.497000000
H    -0.301000000    -4.934000000    -3.837000000
C    -0.868000000    -4.215000000    -1.811000000
C    -1.910000000    -3.452000000    -2.281000000
C    -2.938000000    -3.078000000    -1.380000000
H    -3.551000000    -2.277000000    -1.785000000
C    -2.908000000    -3.499000000    -0.054000000
O    -3.724000000    -2.978000000     0.935000000
C    -3.152000000    -1.982000000     1.777000000
H    -2.245000000    -1.619000000     1.272000000
C    -4.035000000    -0.843000000     1.890000000
C    -4.456000000    -0.269000000     3.100000000
H    -4.389000000    -0.755000000     4.070000000
C    -4.355000000    -0.073000000     0.729000000
H    -4.080000000    -0.512000000    -0.226000000
C    -5.031000000     1.171000000     0.820000000
O    -5.542000000     1.718000000    -0.256000000
C    -5.303000000     1.715000000     2.103000000
H    -5.760000000     2.701000000     2.083000000
C    -5.038000000     0.948000000     3.241000000
O    -5.454000000     1.484000000     4.502000000
C    -4.544000000     1.487000000     5.527000000
C    -3.372000000     2.253000000     5.322000000
H    -3.287000000     2.814000000     4.394000000
C    -4.814000000     0.987000000     6.800000000
H    -5.749000000     0.490000000     7.045000000
C    -3.831000000     1.101000000     7.756000000
H    -3.973000000     0.661000000     8.740000000
C    -2.559000000     1.758000000     7.524000000
H    -1.840000000     2.052000000     8.284000000
C    -2.411000000     2.418000000     6.283000000
O    -1.298000000     3.233000000     6.033000000
C    -0.222000000     2.823000000     5.288000000
C     0.592000000     3.824000000     4.853000000
H     0.404000000     4.867000000     5.095000000
C     1.716000000     3.579000000     4.075000000
O     2.405000000     4.667000000     3.613000000
C     3.611000000     4.617000000     2.957000000
C     3.699000000     4.893000000     1.604000000
H     2.735000000     5.005000000     1.114000000
C     4.804000000     4.198000000     3.620000000
H     4.737000000     4.025000000     4.691000000
C     6.007000000     4.053000000     2.918000000
H     6.856000000     3.637000000     3.454000000
C     6.022000000     4.246000000     1.537000000
H     6.843000000     3.848000000     0.946000000
C     4.831000000     4.625000000     0.902000000
O     4.894000000     4.909000000    -0.455000000
C     4.528000000     3.937000000    -1.372000000
C     4.175000000     4.326000000    -2.596000000
H     4.226000000     5.374000000    -2.879000000
C     3.672000000     3.452000000    -3.564000000
O     3.267000000     3.952000000    -4.779000000
C     2.637000000     3.178000000    -5.757000000
C     1.213000000     3.151000000    -5.621000000
H     0.755000000     3.554000000    -4.721000000
C     3.239000000     2.542000000    -6.863000000
H     4.310000000     2.524000000    -7.046000000
C     2.516000000     1.925000000    -7.835000000
H     3.022000000     1.612000000    -8.745000000
C     1.148000000     1.826000000    -7.640000000
H     0.563000000     1.169000000    -8.279000000
C     0.495000000     2.351000000    -6.519000000
O    -0.828000000     2.355000000    -6.488000000
C    -1.581000000     1.338000000    -5.861000000
C    -2.949000000     1.446000000    -5.798000000
H    -3.471000000     2.310000000    -6.202000000
C    -3.752000000     0.491000000    -5.133000000
O    -5.119000000     0.755000000    -4.971000000
C    -5.795000000     0.707000000    -3.727000000
C    -6.831000000    -0.251000000    -3.624000000
H    -7.192000000    -0.727000000    -4.532000000
C    -7.496000000    -0.503000000    -2.437000000
H    -8.354000000    -1.170000000    -2.423000000
C    -7.046000000     0.099000000    -1.272000000
H    -7.622000000    -0.186000000    -0.395000000
C    -5.971000000     1.024000000    -1.331000000
C    -5.386000000     1.304000000    -2.556000000
H    -4.473000000     1.895000000    -2.565000000
C    -1.881000000     2.187000000     0.981000000
H    -2.308000000     2.670000000     1.856000000
C    -1.011000000     1.046000000     1.067000000
H    -0.892000000     0.619000000     2.060000000
C    -0.325000000     0.579000000    -0.041000000
C     0.674000000    -0.490000000     0.097000000
H     1.610000000    -0.098000000     0.499000000
H     0.358000000    -1.250000000     0.814000000
H     0.949000000    -0.925000000    -0.866000000
C    -0.528000000     1.159000000    -1.256000000
H     0.137000000     0.913000000    -2.080000000
C    -1.461000000     2.197000000    -1.360000000
H    -1.634000000     2.713000000    -2.301000000
C    -2.147000000     2.740000000    -0.275000000
C    -3.043000000     3.962000000    -0.376000000
O    -3.284000000     4.480000000    -1.464000000
O    -3.470000000     4.438000000     0.643000000
O     1.910000000     6.078000000    -1.982000000
H     0.978000000     6.219000000    -1.816000000
H     2.037000000     5.138000000    -1.851000000
O    -1.112000000     8.561000000     1.239000000
H    -1.165000000     8.260000000     0.332000000
H    -0.196000000     8.814000000     1.354000000
O    -8.313000000     6.474000000    -3.464000000
H    -7.934000000     6.487000000    -2.585000000
H    -9.240000000     6.280000000    -3.322000000
O    -1.872000000     8.375000000    -1.420000000
H    -2.572000000     8.977000000    -1.169000000
H    -2.253000000     7.504000000    -1.307000000
O    -3.983000000     6.993000000     0.033000000
H    -4.923000000     7.041000000     0.205000000
H    -3.771000000     6.064000000     0.123000000
O    -6.436000000     3.557000000    -4.665000000
H    -6.005000000     3.973000000    -3.918000000
H    -5.926000000     2.762000000    -4.822000000
O    -6.060000000     5.453000000     4.731000000
H    -5.305000000     5.292000000     4.166000000
H    -6.818000000     5.308000000     4.164000000
O    -0.412000000     5.585000000     1.225000000
H    -0.968000000     6.304000000     0.924000000
H    -0.427000000     5.653000000     2.179000000
O    -2.199000000     6.181000000     5.309000000
H    -2.613000000     6.777000000     4.685000000
H    -2.445000000     5.307000000     5.005000000
O    -0.571000000     7.626000000    -3.632000000
H    -0.837000000     6.720000000    -3.786000000
H    -1.220000000     7.964000000    -3.014000000
O    -6.083000000     4.568000000     0.376000000
H    -5.229000000     4.374000000     0.761000000
H    -6.385000000     3.729000000     0.028000000
O     0.847000000     3.588000000    -0.008000000
H     0.411000000     4.286000000     0.481000000
H     0.253000000     2.841000000     0.059000000
O    -1.826000000     5.212000000    -3.773000000
H    -1.093000000     4.597000000    -3.819000000
H    -2.404000000     4.845000000    -3.104000000
O    -7.618000000     4.844000000     2.583000000
H    -7.056000000     4.637000000     1.836000000
H    -8.187000000     4.080000000     2.673000000
O    -3.739000000     6.962000000    -4.774000000
H    -4.537000000     6.443000000    -4.876000000
H    -3.050000000     6.315000000    -4.621000000
O    -5.402000000     5.126000000    -2.872000000
H    -5.897000000     5.629000000    -2.225000000
H    -4.607000000     4.860000000    -2.411000000
O    -7.568000000     6.456000000    -0.859000000
H    -7.054000000     5.787000000    -0.408000000
H    -8.227000000     6.724000000    -0.218000000
O    -2.946000000     7.797000000     3.161000000
H    -3.651000000     8.298000000     2.751000000
H    -2.213000000     7.871000000     2.549000000
O    -3.810000000     5.020000000     3.218000000
H    -3.741000000     5.945000000     2.985000000
H    -3.677000000     4.554000000     2.392000000
