218
-1480.02237
C     2.585000000     1.511000000     3.866000000
H     3.266000000     1.141000000     3.104000000
C     1.633000000     0.628000000     4.345000000
C     0.608000000     1.111000000     5.143000000
H    -0.172000000     0.492000000     5.578000000
C     1.596000000    -0.750000000     3.725000000
O     2.906000000    -1.372000000     3.681000000
H     1.142000000    -0.556000000     2.743000000
O     0.725000000    -1.446000000     4.640000000
C    -0.137000000    -2.282000000     3.979000000
C    -1.482000000    -1.904000000     3.967000000
H    -1.786000000    -1.014000000     4.511000000
C    -2.325000000    -2.558000000     3.110000000
O    -3.582000000    -2.000000000     2.787000000
C    -1.935000000    -3.679000000     2.324000000
C    -2.952000000    -4.414000000     1.466000000
H    -2.658000000    -5.465000000     1.508000000
C    -2.855000000    -3.804000000     0.039000000
C    -2.065000000    -4.478000000    -0.922000000
H    -1.422000000    -5.241000000    -0.490000000
H    -3.940000000    -4.388000000     1.929000000
C    -0.639000000    -4.186000000     2.472000000
H    -0.248000000    -4.957000000     1.814000000
C     0.236000000    -3.478000000     3.315000000
C     1.729000000    -3.962000000     3.355000000
H     1.700000000    -5.049000000     3.257000000
H     2.063000000    -3.955000000     4.395000000
C     2.641000000    -3.361000000     2.293000000
C     2.832000000    -3.941000000     1.005000000
H     2.243000000    -4.798000000     0.687000000
C     3.188000000    -2.105000000     2.525000000
C     3.821000000    -1.431000000     1.516000000
H     4.102000000    -0.396000000     1.691000000
C     4.076000000    -2.026000000     0.305000000
O     4.677000000    -1.244000000    -0.614000000
C     3.700000000    -0.608000000    -1.551000000
C     4.029000000     0.895000000    -1.789000000
C     3.616000000     1.530000000    -2.973000000
H     2.971000000     0.930000000    -3.610000000
C     4.872000000     1.558000000    -0.914000000
H     5.264000000     1.171000000     0.023000000
O     3.801000000    -1.331000000    -2.804000000
H     2.707000000    -0.660000000    -1.081000000
C     3.578000000    -3.311000000    -0.005000000
C     3.740000000    -3.899000000    -1.350000000
H     3.786000000    -4.986000000    -1.258000000
H     4.742000000    -3.712000000    -1.743000000
C     2.656000000    -3.457000000    -2.294000000
C     1.468000000    -4.202000000    -2.411000000
H     1.380000000    -5.126000000    -1.846000000
C     2.801000000    -2.254000000    -3.015000000
C     1.861000000    -1.954000000    -3.983000000
H     2.056000000    -1.133000000    -4.669000000
C     0.680000000    -2.691000000    -4.055000000
O    -0.368000000    -2.201000000    -4.734000000
C    -1.343000000    -1.428000000    -3.857000000
C    -1.707000000    -0.082000000    -4.544000000
C    -0.834000000     0.588000000    -5.427000000
H     0.071000000     0.067000000    -5.730000000
C    -2.881000000     0.668000000    -4.184000000
H    -3.487000000     0.166000000    -3.434000000
O    -2.557000000    -2.196000000    -3.724000000
H    -0.962000000    -1.251000000    -2.841000000
C     0.405000000    -3.767000000    -3.236000000
C    -0.880000000    -4.503000000    -3.141000000
H    -0.703000000    -5.547000000    -2.875000000
H    -1.363000000    -4.487000000    -4.120000000
C    -1.873000000    -3.943000000    -2.157000000
C    -2.694000000    -2.848000000    -2.503000000
C    -3.516000000    -2.172000000    -1.585000000
H    -4.005000000    -1.304000000    -2.020000000
C    -3.646000000    -2.694000000    -0.306000000
O    -4.346000000    -1.914000000     0.572000000
C    -3.606000000    -1.157000000     1.650000000
H    -2.633000000    -1.061000000     1.148000000
C    -4.142000000     0.224000000     1.890000000
C    -4.106000000     0.742000000     3.160000000
H    -3.534000000     0.269000000     3.953000000
C    -4.643000000     0.958000000     0.834000000
H    -4.640000000     0.631000000    -0.203000000
C    -5.255000000     2.188000000     0.995000000
O    -5.909000000     2.912000000     0.012000000
C    -5.338000000     2.647000000     2.352000000
H    -5.988000000     3.505000000     2.504000000
C    -4.711000000     1.957000000     3.407000000
O    -4.785000000     2.412000000     4.713000000
C    -3.799000000     2.350000000     5.683000000
C    -2.392000000     2.525000000     5.488000000
H    -2.035000000     2.787000000     4.496000000
C    -4.287000000     2.174000000     6.976000000
H    -5.310000000     1.844000000     7.134000000
C    -3.392000000     2.146000000     8.088000000
H    -3.788000000     1.917000000     9.074000000
C    -1.995000000     2.279000000     7.836000000
H    -1.290000000     2.135000000     8.650000000
C    -1.526000000     2.539000000     6.577000000
O    -0.161000000     2.891000000     6.505000000
C     0.711000000     2.443000000     5.574000000
C     1.703000000     3.255000000     5.142000000
H     1.788000000     4.309000000     5.393000000
C     2.638000000     2.802000000     4.231000000
O     3.546000000     3.702000000     3.760000000
C     4.703000000     3.445000000     3.163000000
C     4.843000000     3.814000000     1.793000000
H     4.089000000     4.504000000     1.421000000
C     5.672000000     2.601000000     3.784000000
H     5.407000000     2.269000000     4.784000000
C     6.831000000     2.251000000     3.097000000
H     7.558000000     1.565000000     3.523000000
C     6.885000000     2.647000000     1.759000000
H     7.742000000     2.313000000     1.178000000
C     5.971000000     3.373000000     1.108000000
O     6.065000000     3.539000000    -0.248000000
C     5.286000000     2.839000000    -1.143000000
C     4.884000000     3.436000000    -2.338000000
H     4.991000000     4.514000000    -2.423000000
C     3.975000000     2.833000000    -3.234000000
O     3.583000000     3.503000000    -4.397000000
C     3.023000000     2.754000000    -5.427000000
C     1.650000000     2.868000000    -5.662000000
H     1.018000000     3.575000000    -5.131000000
C     3.780000000     1.906000000    -6.190000000
H     4.853000000     1.830000000    -6.037000000
C     3.184000000     1.181000000    -7.135000000
H     3.865000000     0.556000000    -7.707000000
C     1.849000000     1.302000000    -7.472000000
H     1.443000000     0.704000000    -8.284000000
C     1.044000000     2.171000000    -6.710000000
O    -0.304000000     2.388000000    -6.896000000
C    -1.208000000     1.794000000    -6.099000000
C    -2.437000000     2.401000000    -5.836000000
H    -2.794000000     3.266000000    -6.389000000
C    -3.223000000     1.901000000    -4.832000000
O    -4.405000000     2.512000000    -4.609000000
C    -5.220000000     2.006000000    -3.557000000
C    -6.366000000     1.362000000    -3.894000000
H    -6.464000000     1.005000000    -4.916000000
C    -7.258000000     1.032000000    -2.871000000
H    -8.012000000     0.262000000    -3.010000000
C    -7.089000000     1.465000000    -1.567000000
H    -7.768000000     1.193000000    -0.764000000
C    -6.039000000     2.316000000    -1.257000000
C    -5.104000000     2.600000000    -2.282000000
H    -4.264000000     3.271000000    -2.123000000
C    -1.092000000     2.464000000     1.740000000
H    -1.149000000     2.851000000     2.755000000
C    -0.625000000     1.174000000     1.483000000
H    -0.437000000     0.491000000     2.307000000
C    -0.601000000     0.627000000     0.221000000
C    -0.254000000    -0.830000000     0.058000000
H    -0.308000000    -1.407000000     0.984000000
H    -1.049000000    -1.166000000    -0.611000000
H     0.735000000    -1.019000000    -0.365000000
C    -1.153000000     1.335000000    -0.837000000
H    -1.134000000     0.919000000    -1.842000000
C    -1.611000000     2.603000000    -0.634000000
H    -2.106000000     3.141000000    -1.439000000
C    -1.647000000     3.169000000     0.678000000
C    -2.355000000     4.452000000     0.888000000
O    -2.628000000     5.154000000    -0.121000000
O    -2.438000000     5.007000000     1.944000000
O    -1.482000000    10.695000000     2.986000000
H    -2.325000000    10.867000000     3.407000000
H    -1.474000000     9.749000000     2.845000000
O    -0.207000000     6.354000000     0.046000000
H     0.381000000     5.845000000     0.604000000
H    -0.838000000     5.713000000    -0.283000000
O     1.215000000     5.146000000     2.418000000
H     1.675000000     4.343000000     2.661000000
H     0.625000000     5.316000000     3.153000000
O    -2.822000000     6.426000000    -2.277000000
H    -2.910000000     5.930000000    -1.463000000
H    -2.958000000     7.337000000    -2.018000000
O    -4.326000000     6.036000000    -4.861000000
H    -3.813000000     5.834000000    -4.079000000
H    -5.233000000     6.049000000    -4.555000000
O    -1.127000000     5.264000000     4.150000000
H    -1.793000000     5.669000000     4.705000000
H    -1.595000000     5.025000000     3.350000000
O    -5.532000000     5.083000000     5.582000000
H    -5.110000000     5.342000000     4.762000000
H    -4.830000000     5.115000000     6.232000000
O    -4.253000000     6.243000000     3.416000000
H    -3.623000000     5.774000000     2.869000000
H    -4.523000000     6.991000000     2.883000000
O    -0.200000000     8.768000000    -1.478000000
H     0.678000000     8.867000000    -1.846000000
H    -0.232000000     7.862000000    -1.172000000
O    -6.210000000     7.116000000    -2.991000000
H    -5.623000000     7.773000000    -3.365000000
H    -5.850000000     6.940000000    -2.121000000
O    -4.176000000     8.981000000    -1.540000000
H    -3.640000000     9.774000000    -1.530000000
H    -4.922000000     9.202000000    -2.097000000
O    -4.555000000     8.906000000     1.331000000
H    -4.553000000     8.942000000     0.374000000
H    -3.691000000     8.564000000     1.560000000
O    -8.414000000     2.974000000     0.872000000
H    -7.882000000     2.887000000     1.663000000
H    -7.778000000     2.985000000     0.156000000
O    -5.280000000     5.529000000    -0.571000000
H    -5.645000000     4.646000000    -0.507000000
H    -4.366000000     5.430000000    -0.304000000
O    -2.040000000     7.753000000     1.698000000
H    -1.454000000     7.578000000     0.962000000
H    -2.388000000     6.893000000     1.936000000
O     1.949000000     8.172000000     3.660000000
H     2.123000000     8.916000000     3.084000000
H     1.775000000     7.443000000     3.064000000
O    -0.167000000     5.475000000    -3.391000000
H    -1.015000000     5.706000000    -3.012000000
H    -0.238000000     5.730000000    -4.311000000
O    -6.832000000     7.370000000     0.697000000
H    -6.145000000     7.964000000     1.000000000
H    -6.359000000     6.632000000     0.314000000
O    -2.663000000     6.973000000     5.604000000
H    -2.947000000     7.533000000     6.327000000
H    -3.401000000     6.978000000     4.994000000
