218
-1474.60719
C     3.326000000    -0.373000000     4.114000000
H     4.061000000    -0.644000000     3.361000000
C     2.099000000    -1.005000000     4.231000000
C     1.059000000    -0.443000000     4.978000000
H     0.071000000    -0.895000000     5.009000000
C     1.768000000    -2.289000000     3.359000000
O     2.894000000    -3.001000000     2.929000000
H     1.207000000    -1.839000000     2.527000000
O     0.801000000    -3.173000000     3.903000000
C    -0.269000000    -3.505000000     3.102000000
C    -1.423000000    -2.787000000     3.155000000
H    -1.628000000    -2.110000000     3.980000000
C    -2.473000000    -3.055000000     2.296000000
O    -3.604000000    -2.291000000     2.414000000
C    -2.341000000    -3.977000000     1.322000000
C    -3.471000000    -4.200000000     0.304000000
H    -3.410000000    -5.221000000    -0.079000000
C    -3.545000000    -3.304000000    -0.863000000
C    -2.921000000    -3.672000000    -2.076000000
H    -2.446000000    -4.635000000    -2.243000000
H    -4.422000000    -4.223000000     0.840000000
C    -1.124000000    -4.724000000     1.265000000
H    -0.921000000    -5.319000000     0.379000000
C    -0.073000000    -4.494000000     2.170000000
C     1.245000000    -5.146000000     1.925000000
H     1.052000000    -6.120000000     1.469000000
H     1.671000000    -5.381000000     2.902000000
C     2.238000000    -4.362000000     1.084000000
C     2.171000000    -4.485000000    -0.292000000
H     1.468000000    -5.196000000    -0.719000000
C     2.996000000    -3.266000000     1.661000000
C     3.699000000    -2.421000000     0.900000000
H     4.271000000    -1.564000000     1.247000000
C     3.717000000    -2.619000000    -0.505000000
O     4.278000000    -1.616000000    -1.243000000
C     3.396000000    -0.662000000    -1.752000000
C     4.096000000     0.718000000    -1.674000000
C     3.719000000     1.757000000    -2.522000000
H     3.110000000     1.502000000    -3.385000000
C     4.912000000     0.940000000    -0.646000000
H     5.225000000     0.186000000     0.072000000
O     3.193000000    -0.879000000    -3.233000000
H     2.541000000    -0.686000000    -1.060000000
C     2.949000000    -3.662000000    -1.089000000
C     2.859000000    -3.752000000    -2.570000000
H     2.863000000    -4.808000000    -2.847000000
H     3.892000000    -3.475000000    -2.787000000
C     1.806000000    -2.831000000    -3.213000000
C     0.547000000    -3.328000000    -3.374000000
H     0.342000000    -4.328000000    -2.999000000
C     2.109000000    -1.547000000    -3.626000000
C     1.170000000    -0.749000000    -4.299000000
H     1.418000000     0.297000000    -4.456000000
C    -0.149000000    -1.288000000    -4.543000000
O    -1.112000000    -0.489000000    -5.023000000
C    -1.961000000     0.124000000    -3.985000000
C    -2.129000000     1.627000000    -4.283000000
C    -1.068000000     2.340000000    -4.846000000
H    -0.150000000     1.796000000    -5.049000000
C    -3.305000000     2.242000000    -3.968000000
H    -4.110000000     1.738000000    -3.439000000
O    -3.214000000    -0.524000000    -3.961000000
H    -1.390000000     0.014000000    -3.052000000
C    -0.453000000    -2.596000000    -4.064000000
C    -1.830000000    -3.127000000    -4.310000000
H    -1.696000000    -4.182000000    -4.556000000
H    -2.275000000    -2.758000000    -5.237000000
C    -2.753000000    -2.739000000    -3.120000000
C    -3.359000000    -1.495000000    -2.994000000
C    -4.088000000    -1.165000000    -1.841000000
H    -4.515000000    -0.170000000    -1.744000000
C    -4.195000000    -2.053000000    -0.802000000
O    -4.679000000    -1.620000000     0.440000000
C    -3.777000000    -1.188000000     1.500000000
H    -2.801000000    -0.927000000     1.064000000
C    -4.295000000     0.067000000     2.141000000
C    -4.340000000     0.211000000     3.534000000
H    -4.167000000    -0.574000000     4.266000000
C    -4.555000000     1.155000000     1.293000000
H    -4.573000000     0.994000000     0.219000000
C    -4.644000000     2.438000000     1.830000000
O    -4.695000000     3.533000000     0.999000000
C    -4.543000000     2.563000000     3.171000000
H    -4.650000000     3.551000000     3.612000000
C    -4.442000000     1.527000000     4.040000000
O    -4.378000000     1.770000000     5.381000000
C    -3.343000000     1.192000000     6.081000000
C    -2.035000000     1.523000000     5.747000000
H    -1.855000000     2.122000000     4.858000000
C    -3.665000000     0.283000000     7.120000000
H    -4.689000000    -0.029000000     7.312000000
C    -2.607000000    -0.256000000     7.851000000
H    -2.850000000    -0.942000000     8.659000000
C    -1.308000000     0.175000000     7.615000000
H    -0.543000000    -0.253000000     8.258000000
C    -0.997000000     0.954000000     6.504000000
O     0.281000000     1.416000000     6.304000000
C     1.298000000     0.740000000     5.651000000
C     2.621000000     1.212000000     5.760000000
H     2.826000000     2.023000000     6.454000000
C     3.597000000     0.753000000     4.909000000
O     4.742000000     1.425000000     4.828000000
C     5.695000000     1.233000000     3.881000000
C     5.602000000     2.016000000     2.760000000
H     5.004000000     2.924000000     2.724000000
C     6.780000000     0.215000000     3.962000000
H     6.998000000    -0.458000000     4.787000000
C     7.722000000     0.108000000     2.915000000
H     8.486000000    -0.665000000     2.938000000
C     7.445000000     0.773000000     1.746000000
H     8.175000000     0.736000000     0.942000000
C     6.475000000     1.751000000     1.739000000
O     6.372000000     2.422000000     0.545000000
C     5.394000000     2.197000000    -0.373000000
C     5.050000000     3.275000000    -1.198000000
H     5.539000000     4.224000000    -0.991000000
C     4.131000000     3.050000000    -2.255000000
O     3.807000000     4.089000000    -3.055000000
C     3.264000000     3.953000000    -4.273000000
C     1.874000000     4.121000000    -4.363000000
H     1.288000000     4.454000000    -3.510000000
C     3.984000000     3.503000000    -5.354000000
H     5.042000000     3.262000000    -5.287000000
C     3.290000000     3.316000000    -6.596000000
H     3.713000000     2.880000000    -7.498000000
C     1.999000000     3.696000000    -6.741000000
H     1.445000000     3.658000000    -7.676000000
C     1.255000000     4.094000000    -5.583000000
O    -0.100000000     4.468000000    -5.706000000
C    -1.136000000     3.732000000    -5.039000000
C    -2.360000000     4.350000000    -4.745000000
H    -2.393000000     5.430000000    -4.870000000
C    -3.398000000     3.657000000    -4.197000000
O    -4.452000000     4.360000000    -3.738000000
C    -5.187000000     3.893000000    -2.686000000
C    -6.502000000     3.550000000    -2.790000000
H    -7.040000000     3.630000000    -3.731000000
C    -7.206000000     3.127000000    -1.698000000
H    -8.271000000     2.939000000    -1.808000000
C    -6.572000000     3.112000000    -0.386000000
H    -7.178000000     2.912000000     0.494000000
C    -5.262000000     3.500000000    -0.264000000
C    -4.558000000     3.882000000    -1.464000000
H    -3.515000000     4.175000000    -1.555000000
C    -1.031000000     1.920000000     1.382000000
H    -1.547000000     2.301000000     2.260000000
C    -0.734000000     0.576000000     1.165000000
H    -1.046000000    -0.149000000     1.913000000
C    -0.089000000     0.191000000    -0.024000000
C     0.103000000    -1.286000000    -0.237000000
H    -0.849000000    -1.819000000    -0.194000000
H     0.503000000    -1.534000000    -1.222000000
H     0.817000000    -1.642000000     0.508000000
C     0.329000000     1.186000000    -0.945000000
H     0.907000000     0.964000000    -1.838000000
C    -0.018000000     2.479000000    -0.687000000
H     0.215000000     3.288000000    -1.373000000
C    -0.661000000     2.864000000     0.472000000
C    -0.883000000     4.370000000     0.634000000
O    -0.749000000     5.162000000    -0.258000000
O    -1.201000000     4.745000000     1.741000000
O    -0.451000000     8.735000000    -0.082000000
H    -0.628000000     8.038000000     0.549000000
H    -0.659000000     8.347000000    -0.932000000
O     2.251000000     5.268000000     0.166000000
H     2.300000000     4.443000000     0.649000000
H     1.374000000     5.269000000    -0.217000000
O    -0.783000000     7.313000000     2.533000000
H    -1.735000000     7.417000000     2.554000000
H    -0.647000000     6.370000000     2.445000000
O    -0.146000000     6.679000000    -2.235000000
H    -0.419000000     6.073000000    -1.546000000
H     0.780000000     6.845000000    -2.055000000
O     3.230000000     4.405000000     4.779000000
H     3.036000000     3.555000000     4.386000000
H     2.414000000     4.663000000     5.207000000
O    -5.189000000     6.735000000    -1.449000000
H    -5.817000000     6.015000000    -1.500000000
H    -5.425000000     7.202000000    -0.648000000
O    -0.094000000     3.633000000     4.042000000
H    -0.241000000     4.247000000     3.322000000
H     0.006000000     4.189000000     4.814000000
O     0.192000000     8.817000000     4.975000000
H    -0.199000000     8.464000000     4.175000000
H    -0.088000000     9.732000000     4.993000000
O    -2.882000000     7.324000000    -0.202000000
H    -3.631000000     6.997000000    -0.701000000
H    -2.435000000     6.535000000     0.104000000
O     2.582000000     6.854000000    -2.287000000
H     2.735000000     6.175000000    -1.630000000
H     2.916000000     6.479000000    -3.102000000
O     2.171000000     2.846000000     2.200000000
H     2.764000000     2.142000000     1.937000000
H     1.349000000     2.401000000     2.408000000
O    -3.139000000     5.443000000     3.371000000
H    -3.702000000     5.908000000     2.751000000
H    -2.419000000     5.109000000     2.836000000
O    -3.590000000     7.564000000    -3.647000000
H    -2.634000000     7.550000000    -3.590000000
H    -3.884000000     7.243000000    -2.794000000
O     1.954000000     9.355000000     1.519000000
H     2.590000000     8.916000000     0.955000000
H     1.141000000     8.865000000     1.392000000
O    -0.899000000     7.791000000    -4.567000000
H    -0.711000000     7.377000000    -3.725000000
H    -0.126000000     7.608000000    -5.101000000
O     4.265000000     5.625000000     2.454000000
H     3.355000000     5.830000000     2.240000000
H     4.224000000     5.238000000     3.329000000
O    -3.127000000     4.545000000     5.814000000
H    -2.950000000     5.155000000     5.098000000
H    -3.464000000     3.760000000     5.383000000
O    -3.617000000     8.607000000     2.521000000
H    -3.935000000     8.281000000     1.679000000
H    -3.219000000     9.454000000     2.316000000
O     0.653000000     5.934000000     5.376000000
H     0.188000000     6.327000000     6.114000000
H     0.581000000     6.582000000     4.675000000
