218
-1466.04284
C     3.478000000    -0.932000000     3.756000000
H     4.151000000    -1.496000000     3.115000000
C     2.084000000    -1.330000000     3.710000000
C     1.243000000    -0.786000000     4.661000000
H     0.237000000    -1.174000000     4.796000000
C     1.600000000    -2.412000000     2.782000000
O     2.676000000    -3.196000000     2.404000000
H     1.100000000    -1.908000000     1.942000000
O     0.583000000    -3.236000000     3.484000000
C    -0.537000000    -3.644000000     2.782000000
C    -1.716000000    -2.973000000     3.025000000
H    -1.733000000    -2.350000000     3.915000000
C    -2.783000000    -3.219000000     2.230000000
O    -3.779000000    -2.282000000     2.482000000
C    -2.713000000    -4.054000000     1.075000000
C    -3.840000000    -4.239000000     0.084000000
H    -3.660000000    -5.230000000    -0.338000000
C    -3.768000000    -3.029000000    -0.908000000
C    -3.312000000    -3.324000000    -2.208000000
H    -3.058000000    -4.334000000    -2.520000000
H    -4.794000000    -4.350000000     0.603000000
C    -1.545000000    -4.693000000     0.868000000
H    -1.415000000    -5.399000000     0.053000000
C    -0.454000000    -4.525000000     1.644000000
C     0.839000000    -5.313000000     1.346000000
H     0.615000000    -6.297000000     0.929000000
H     1.262000000    -5.765000000     2.245000000
C     1.886000000    -4.522000000     0.501000000
C     1.689000000    -4.607000000    -0.908000000
H     1.001000000    -5.292000000    -1.397000000
C     2.711000000    -3.556000000     1.024000000
C     3.416000000    -2.653000000     0.246000000
H     3.978000000    -1.846000000     0.711000000
C     3.297000000    -2.779000000    -1.149000000
O     4.034000000    -1.940000000    -1.927000000
C     3.365000000    -0.773000000    -2.457000000
C     4.325000000     0.433000000    -2.308000000
C     4.263000000     1.565000000    -3.207000000
H     3.625000000     1.583000000    -4.087000000
C     5.060000000     0.569000000    -1.109000000
H     5.140000000    -0.290000000    -0.448000000
O     3.003000000    -0.911000000    -3.922000000
H     2.472000000    -0.552000000    -1.854000000
C     2.393000000    -3.715000000    -1.747000000
C     2.234000000    -3.716000000    -3.252000000
H     1.918000000    -4.722000000    -3.535000000
H     3.194000000    -3.611000000    -3.761000000
C     1.257000000    -2.640000000    -3.759000000
C    -0.098000000    -3.026000000    -4.088000000
H    -0.400000000    -4.059000000    -3.935000000
C     1.670000000    -1.349000000    -4.147000000
C     0.777000000    -0.423000000    -4.609000000
H     1.138000000     0.572000000    -4.858000000
C    -0.557000000    -0.780000000    -4.754000000
O    -1.392000000     0.267000000    -4.851000000
C    -2.042000000     0.749000000    -3.671000000
C    -2.091000000     2.261000000    -3.690000000
C    -0.903000000     2.991000000    -3.797000000
H     0.033000000     2.442000000    -3.854000000
C    -3.287000000     2.895000000    -3.392000000
H    -4.223000000     2.366000000    -3.232000000
O    -3.333000000     0.073000000    -3.620000000
H    -1.513000000     0.422000000    -2.764000000
C    -1.013000000    -2.065000000    -4.545000000
C    -2.426000000    -2.455000000    -4.553000000
H    -2.607000000    -3.475000000    -4.900000000
H    -2.876000000    -1.847000000    -5.340000000
C    -3.088000000    -2.281000000    -3.157000000
C    -3.365000000    -0.989000000    -2.755000000
C    -3.930000000    -0.732000000    -1.535000000
H    -4.250000000     0.284000000    -1.319000000
C    -4.084000000    -1.735000000    -0.604000000
O    -4.715000000    -1.332000000     0.568000000
C    -3.777000000    -1.142000000     1.644000000
H    -2.785000000    -0.946000000     1.213000000
C    -4.209000000     0.102000000     2.402000000
C    -4.171000000     0.063000000     3.814000000
H    -3.915000000    -0.888000000     4.275000000
C    -4.226000000     1.381000000     1.795000000
H    -4.445000000     1.473000000     0.734000000
C    -4.426000000     2.547000000     2.588000000
O    -4.637000000     3.819000000     2.026000000
C    -4.288000000     2.491000000     3.984000000
H    -4.448000000     3.341000000     4.643000000
C    -4.098000000     1.217000000     4.582000000
O    -3.967000000     1.159000000     5.880000000
C    -2.842000000     0.571000000     6.372000000
C    -1.590000000     1.078000000     6.060000000
H    -1.480000000     2.008000000     5.508000000
C    -2.855000000    -0.658000000     7.056000000
H    -3.797000000    -1.173000000     7.226000000
C    -1.786000000    -1.316000000     7.624000000
H    -1.904000000    -2.277000000     8.118000000
C    -0.572000000    -0.648000000     7.453000000
H     0.329000000    -1.101000000     7.859000000
C    -0.458000000     0.477000000     6.593000000
O     0.808000000     1.014000000     6.319000000
C     1.603000000     0.384000000     5.372000000
C     2.959000000     0.733000000     5.363000000
H     3.299000000     1.511000000     6.042000000
C     3.915000000     0.046000000     4.604000000
O     5.280000000     0.356000000     4.681000000
C     6.149000000     0.234000000     3.601000000
C     6.074000000     1.175000000     2.591000000
H     5.393000000     2.009000000     2.738000000
C     7.103000000    -0.731000000     3.464000000
H     7.318000000    -1.508000000     4.194000000
C     7.876000000    -0.776000000     2.349000000
H     8.606000000    -1.579000000     2.289000000
C     7.693000000     0.073000000     1.282000000
H     8.291000000     0.013000000     0.376000000
C     6.744000000     1.086000000     1.373000000
O     6.511000000     2.021000000     0.394000000
C     5.727000000     1.774000000    -0.737000000
C     5.483000000     2.853000000    -1.567000000
H     5.803000000     3.847000000    -1.262000000
C     4.828000000     2.715000000    -2.802000000
O     4.738000000     3.832000000    -3.628000000
C     3.671000000     4.122000000    -4.410000000
C     2.477000000     4.542000000    -3.782000000
H     2.383000000     4.773000000    -2.724000000
C     3.701000000     3.915000000    -5.787000000
H     4.687000000     3.605000000    -6.124000000
C     2.582000000     4.088000000    -6.655000000
H     2.626000000     4.081000000    -7.741000000
C     1.336000000     4.486000000    -5.939000000
H     0.436000000     4.597000000    -6.537000000
C     1.331000000     4.709000000    -4.569000000
O     0.254000000     5.177000000    -3.908000000
C    -0.924000000     4.394000000    -3.734000000
C    -2.114000000     5.060000000    -3.407000000
H    -2.102000000     6.125000000    -3.191000000
C    -3.277000000     4.290000000    -3.161000000
O    -4.447000000     4.873000000    -2.725000000
C    -5.118000000     4.564000000    -1.557000000
C    -6.449000000     4.230000000    -1.640000000
H    -6.992000000     4.105000000    -2.573000000
C    -7.195000000     3.906000000    -0.515000000
H    -8.264000000     3.761000000    -0.641000000
C    -6.594000000     3.851000000     0.757000000
H    -7.122000000     3.564000000     1.663000000
C    -5.257000000     4.023000000     0.801000000
C    -4.505000000     4.490000000    -0.305000000
H    -3.435000000     4.679000000    -0.345000000
C    -0.771000000     1.480000000     2.260000000
H    -1.045000000     1.467000000     3.312000000
C    -0.588000000     0.243000000     1.663000000
H    -0.775000000    -0.670000000     2.222000000
C    -0.148000000     0.117000000     0.354000000
C    -0.003000000    -1.184000000    -0.283000000
H    -0.514000000    -1.107000000    -1.245000000
H     1.065000000    -1.410000000    -0.294000000
H    -0.505000000    -2.011000000     0.224000000
C     0.105000000     1.321000000    -0.381000000
H     0.453000000     1.209000000    -1.405000000
C    -0.049000000     2.555000000     0.240000000
H     0.094000000     3.405000000    -0.423000000
C    -0.561000000     2.673000000     1.544000000
C    -1.062000000     3.991000000     2.052000000
O    -1.073000000     4.949000000     1.313000000
O    -1.443000000     4.125000000     3.247000000
O     3.067000000     7.228000000     2.549000000
H     3.470000000     6.432000000     2.895000000
H     2.127000000     7.049000000     2.568000000
O     3.799000000     4.815000000     0.112000000
H     4.189000000     3.957000000     0.276000000
H     2.882000000     4.715000000     0.370000000
O     0.391000000     6.841000000     3.124000000
H    -0.026000000     7.247000000     2.364000000
H    -0.019000000     5.978000000     3.189000000
O     1.227000000     5.912000000     0.262000000
H     0.458000000     5.507000000     0.663000000
H     1.009000000     6.842000000     0.212000000
O    -3.318000000     9.233000000    -1.426000000
H    -2.753000000     8.676000000    -0.890000000
H    -4.041000000     9.471000000    -0.846000000
O     1.988000000     3.756000000     4.537000000
H     1.185000000     3.959000000     5.017000000
H     2.684000000     3.832000000     5.190000000
O     0.694000000     7.984000000     5.678000000
H     0.656000000     7.867000000     4.728000000
H    -0.219000000     7.935000000     5.962000000
O    -2.692000000     7.087000000     0.363000000
H    -3.626000000     6.895000000     0.448000000
H    -2.257000000     6.352000000     0.796000000
O    -4.964000000     6.240000000     5.441000000
H    -4.591000000     6.657000000     6.218000000
H    -4.274000000     6.304000000     4.781000000
O     2.552000000     3.034000000     1.921000000
H     1.897000000     2.427000000     1.578000000
H     2.299000000     3.170000000     2.834000000
O    -1.982000000     8.029000000     6.216000000
H    -2.713000000     7.984000000     5.599000000
H    -2.392000000     7.958000000     7.078000000
O    -5.154000000     6.912000000     2.068000000
H    -5.414000000     7.833000000     2.098000000
H    -5.934000000     6.453000000     1.757000000
O    -3.093000000     6.282000000     3.491000000
H    -3.744000000     6.278000000     2.790000000
H    -2.505000000     5.558000000     3.276000000
O    -5.694000000     3.593000000     6.842000000
H    -6.239000000     3.105000000     6.224000000
H    -5.260000000     4.256000000     6.305000000
O    -0.239000000     8.237000000     0.713000000
H    -1.132000000     7.986000000     0.475000000
H    -0.350000000     8.879000000     1.414000000
O     0.034000000     9.545000000    -1.600000000
H     0.098000000     8.906000000    -0.890000000
H     0.940000000     9.799000000    -1.776000000
O    -0.541000000     4.516000000     5.710000000
H    -0.455000000     5.449000000     5.516000000
H    -1.041000000     4.164000000     4.974000000
O    -2.146000000     8.878000000     2.941000000
H    -2.457000000     8.045000000     3.296000000
H    -2.856000000     9.177000000     2.374000000
O    -0.879000000     5.379000000     8.378000000
H    -0.681000000     5.224000000     7.454000000
H    -0.451000000     6.212000000     8.578000000
