218
-1493.40859
C     2.979000000    -1.668000000     3.269000000
H     3.449000000    -1.750000000     2.292000000
C     1.737000000    -2.278000000     3.448000000
C     1.071000000    -2.086000000     4.666000000
H     0.063000000    -2.474000000     4.791000000
C     1.101000000    -3.064000000     2.325000000
O     2.079000000    -3.912000000     1.581000000
H     0.634000000    -2.321000000     1.661000000
O     0.036000000    -3.953000000     2.827000000
C    -1.142000000    -3.958000000     2.092000000
C    -2.226000000    -3.220000000     2.639000000
H    -2.225000000    -2.847000000     3.661000000
C    -3.323000000    -2.984000000     1.825000000
O    -4.222000000    -1.991000000     2.184000000
C    -3.376000000    -3.561000000     0.514000000
C    -4.525000000    -3.317000000    -0.504000000
H    -4.552000000    -4.102000000    -1.262000000
C    -4.191000000    -2.109000000    -1.285000000
C    -3.684000000    -2.271000000    -2.607000000
H    -3.562000000    -3.253000000    -3.058000000
H    -5.520000000    -3.309000000    -0.055000000
C    -2.357000000    -4.404000000     0.112000000
H    -2.419000000    -4.965000000    -0.817000000
C    -1.224000000    -4.569000000     0.863000000
C    -0.096000000    -5.499000000     0.421000000
H    -0.513000000    -6.282000000    -0.217000000
H     0.417000000    -6.036000000     1.222000000
C     0.957000000    -4.670000000    -0.391000000
C     0.913000000    -4.596000000    -1.803000000
H     0.188000000    -5.247000000    -2.284000000
C     2.004000000    -3.997000000     0.175000000
C     2.937000000    -3.145000000    -0.526000000
H     3.643000000    -2.507000000     0.000000000
C     2.794000000    -3.086000000    -1.883000000
O     3.739000000    -2.343000000    -2.572000000
C     3.333000000    -1.020000000    -2.865000000
C     4.380000000     0.015000000    -2.458000000
C     4.392000000     1.219000000    -3.122000000
H     3.700000000     1.430000000    -3.933000000
C     5.332000000    -0.180000000    -1.435000000
H     5.309000000    -1.139000000    -0.923000000
O     2.854000000    -0.942000000    -4.211000000
H     2.464000000    -0.830000000    -2.217000000
C     1.800000000    -3.813000000    -2.554000000
C     1.581000000    -3.645000000    -4.043000000
H     0.928000000    -4.403000000    -4.482000000
H     2.515000000    -3.686000000    -4.607000000
C     0.865000000    -2.366000000    -4.334000000
C    -0.499000000    -2.414000000    -4.575000000
H    -1.045000000    -3.349000000    -4.667000000
C     1.520000000    -1.121000000    -4.385000000
C     0.827000000     0.078000000    -4.465000000
H     1.322000000     1.045000000    -4.507000000
C    -0.559000000     0.022000000    -4.661000000
O    -1.200000000     1.288000000    -4.562000000
C    -1.783000000     1.598000000    -3.272000000
C    -1.578000000     3.063000000    -2.965000000
C    -0.298000000     3.608000000    -3.101000000
H     0.546000000     2.988000000    -3.390000000
C    -2.572000000     3.783000000    -2.283000000
H    -3.553000000     3.334000000    -2.150000000
O    -3.166000000     1.316000000    -3.366000000
H    -1.409000000     0.911000000    -2.499000000
C    -1.255000000    -1.192000000    -4.696000000
C    -2.739000000    -1.197000000    -4.763000000
H    -3.024000000    -2.142000000    -5.230000000
H    -3.013000000    -0.323000000    -5.359000000
C    -3.324000000    -1.134000000    -3.349000000
C    -3.545000000     0.147000000    -2.792000000
C    -4.153000000     0.284000000    -1.565000000
H    -4.175000000     1.292000000    -1.159000000
C    -4.469000000    -0.829000000    -0.790000000
O    -4.916000000    -0.620000000     0.459000000
C    -3.938000000    -0.758000000     1.544000000
H    -2.950000000    -0.864000000     1.072000000
C    -3.914000000     0.387000000     2.582000000
C    -3.384000000     0.176000000     3.825000000
H    -2.978000000    -0.805000000     4.055000000
C    -4.444000000     1.650000000     2.270000000
H    -4.921000000     1.832000000     1.310000000
C    -4.298000000     2.695000000     3.202000000
O    -4.719000000     3.969000000     2.882000000
C    -3.841000000     2.479000000     4.465000000
H    -4.005000000     3.344000000     5.102000000
C    -3.350000000     1.175000000     4.783000000
O    -3.067000000     0.932000000     6.125000000
C    -2.399000000    -0.120000000     6.604000000
C    -1.013000000    -0.232000000     6.376000000
H    -0.524000000     0.450000000     5.685000000
C    -2.991000000    -0.975000000     7.473000000
H    -4.075000000    -0.893000000     7.504000000
C    -2.259000000    -1.919000000     8.258000000
H    -2.828000000    -2.588000000     8.898000000
C    -0.849000000    -1.957000000     8.081000000
H    -0.194000000    -2.705000000     8.521000000
C    -0.238000000    -1.146000000     7.090000000
O     1.168000000    -1.109000000     6.909000000
C     1.737000000    -1.379000000     5.664000000
C     3.020000000    -0.830000000     5.478000000
H     3.532000000    -0.268000000     6.254000000
C     3.609000000    -0.913000000     4.233000000
O     4.837000000    -0.234000000     3.957000000
C     5.680000000    -0.663000000     2.961000000
C     5.787000000     0.136000000     1.787000000
H     5.137000000     0.984000000     1.586000000
C     6.624000000    -1.622000000     3.278000000
H     6.526000000    -2.252000000     4.159000000
C     7.534000000    -2.025000000     2.304000000
H     8.118000000    -2.932000000     2.437000000
C     7.762000000    -1.209000000     1.213000000
H     8.454000000    -1.357000000     0.388000000
C     6.880000000    -0.127000000     0.973000000
O     7.108000000     0.683000000    -0.095000000
C     6.285000000     0.848000000    -1.155000000
C     6.224000000     2.088000000    -1.806000000
H     6.929000000     2.894000000    -1.622000000
C     5.391000000     2.207000000    -2.887000000
O     5.478000000     3.368000000    -3.654000000
C     4.311000000     3.959000000    -4.051000000
C     3.314000000     4.316000000    -3.182000000
H     3.449000000     4.157000000    -2.115000000
C     4.186000000     4.313000000    -5.393000000
H     4.986000000     4.069000000    -6.088000000
C     3.116000000     5.063000000    -5.846000000
H     3.073000000     5.453000000    -6.860000000
C     2.072000000     5.341000000    -4.971000000
H     1.248000000     6.012000000    -5.201000000
C     2.152000000     4.929000000    -3.587000000
O     1.180000000     5.440000000    -2.762000000
C    -0.099000000     4.920000000    -2.698000000
C    -1.061000000     5.635000000    -2.098000000
H    -0.772000000     6.615000000    -1.726000000
C    -2.370000000     5.094000000    -1.941000000
O    -3.382000000     5.924000000    -1.374000000
C    -4.307000000     5.432000000    -0.499000000
C    -5.617000000     5.401000000    -1.041000000
H    -5.802000000     5.794000000    -2.038000000
C    -6.589000000     4.821000000    -0.239000000
H    -7.595000000     4.810000000    -0.652000000
C    -6.254000000     4.401000000     1.080000000
H    -7.086000000     4.162000000     1.738000000
C    -4.936000000     4.444000000     1.555000000
C    -3.933000000     4.908000000     0.762000000
H    -2.900000000     4.920000000     1.103000000
C     2.021000000     1.319000000     2.092000000
H     2.386000000     1.393000000     3.113000000
C     1.007000000     0.515000000     1.701000000
H     0.446000000    -0.124000000     2.378000000
C     0.659000000     0.327000000     0.350000000
C    -0.564000000    -0.470000000    -0.029000000
H    -0.447000000    -1.126000000    -0.894000000
H    -0.915000000    -1.074000000     0.810000000
H    -1.360000000     0.225000000    -0.306000000
C     1.384000000     1.010000000    -0.543000000
H     1.075000000     0.920000000    -1.581000000
C     2.416000000     1.894000000    -0.213000000
H     2.935000000     2.547000000    -0.909000000
C     2.703000000     2.093000000     1.110000000
C     3.632000000     3.204000000     1.546000000
O     4.365000000     3.794000000     0.795000000
O     3.558000000     3.484000000     2.740000000
O     8.973000000     7.270000000     0.924000000
H     8.569000000     6.563000000     1.427000000
H     9.571000000     7.692000000     1.541000000
O     6.800000000     5.462000000     4.910000000
H     5.971000000     5.895000000     5.113000000
H     7.435000000     5.875000000     5.495000000
O     4.518000000     6.204000000    -0.456000000
H     4.532000000     5.357000000    -0.010000000
H     5.102000000     6.089000000    -1.206000000
O     4.481000000     6.559000000     5.541000000
H     3.849000000     6.047000000     6.046000000
H     4.460000000     7.428000000     5.942000000
O     1.359000000     4.928000000     0.012000000
H     1.150000000     4.938000000    -0.922000000
H     2.307000000     5.050000000     0.047000000
O     8.473000000     1.319000000     4.247000000
H     7.830000000     1.775000000     3.705000000
H     8.375000000     1.709000000     5.115000000
O     7.047000000     3.478000000     1.099000000
H     6.182000000     3.825000000     1.321000000
H     6.868000000     2.750000000     0.505000000
O     4.754000000     8.698000000     0.336000000
H     5.464000000     8.549000000     0.960000000
H     4.682000000     7.874000000    -0.146000000
O     5.973000000     3.596000000     7.028000000
H     6.504000000     3.728000000     7.814000000
H     5.368000000     4.337000000     7.021000000
O     8.455000000     5.195000000     2.647000000
H     7.921000000     5.098000000     3.435000000
H     8.072000000     4.580000000     2.021000000
O     0.009000000     3.347000000     1.836000000
H     0.396000000     3.777000000     1.073000000
H     0.609000000     2.628000000     2.036000000
O     3.006000000     6.187000000     2.812000000
H     3.252000000     5.264000000     2.760000000
H     3.565000000     6.546000000     3.501000000
O     5.889000000     3.039000000     3.919000000
H     5.061000000     3.159000000     3.456000000
H     6.033000000     3.870000000     4.373000000
O     1.389000000     4.530000000     6.327000000
H     0.747000000     4.787000000     5.665000000
H     1.947000000     3.890000000     5.885000000
O     2.016000000     7.671000000     0.939000000
H     2.804000000     7.910000000     0.451000000
H     2.218000000     6.814000000     1.315000000
O     6.059000000     6.710000000    -2.683000000
H     6.907000000     6.459000000    -2.318000000
H     6.220000000     6.803000000    -3.622000000
O     3.659000000     8.834000000     3.523000000
H     3.215000000     8.377000000     2.809000000
H     4.511000000     9.076000000     3.160000000
O     3.387000000     2.584000000     5.453000000
H     4.323000000     2.579000000     5.650000000
H     3.330000000     2.942000000     4.567000000
O    -0.521000000     6.145000000     2.463000000
H    -0.441000000     5.191000000     2.447000000
H     0.264000000     6.458000000     2.013000000
