218
-1462.99024
C     3.464000000    -2.252000000     3.721000000
H     4.024000000    -2.389000000     2.800000000
C     2.176000000    -2.782000000     3.772000000
C     1.422000000    -2.610000000     4.954000000
H     0.409000000    -3.004000000     4.919000000
C     1.584000000    -3.341000000     2.539000000
O     2.548000000    -4.099000000     1.753000000
H     1.301000000    -2.477000000     1.920000000
O     0.404000000    -4.147000000     2.809000000
C    -0.682000000    -4.159000000     1.932000000
C    -1.813000000    -3.441000000     2.326000000
H    -1.803000000    -2.880000000     3.257000000
C    -2.860000000    -3.301000000     1.488000000
O    -3.876000000    -2.426000000     1.775000000
C    -2.883000000    -3.982000000     0.273000000
C    -4.072000000    -3.868000000    -0.724000000
H    -4.253000000    -4.742000000    -1.353000000
C    -3.886000000    -2.679000000    -1.633000000
C    -3.224000000    -2.715000000    -2.845000000
H    -2.810000000    -3.691000000    -3.083000000
H    -4.988000000    -3.812000000    -0.131000000
C    -1.779000000    -4.693000000    -0.196000000
H    -1.686000000    -5.032000000    -1.225000000
C    -0.671000000    -4.809000000     0.656000000
C     0.630000000    -5.580000000     0.287000000
H     0.452000000    -6.362000000    -0.455000000
H     1.162000000    -6.043000000     1.121000000
C     1.493000000    -4.590000000    -0.405000000
C     1.472000000    -4.349000000    -1.735000000
H     0.810000000    -5.009000000    -2.290000000
C     2.446000000    -3.950000000     0.367000000
C     3.399000000    -3.125000000    -0.216000000
H     4.088000000    -2.549000000     0.396000000
C     3.272000000    -2.751000000    -1.536000000
O     4.107000000    -1.718000000    -1.923000000
C     3.355000000    -0.468000000    -2.172000000
C     4.056000000     0.795000000    -1.612000000
C     3.904000000     2.024000000    -2.292000000
H     3.504000000     2.003000000    -3.303000000
C     4.577000000     0.862000000    -0.312000000
H     4.540000000    -0.040000000     0.294000000
O     3.064000000    -0.325000000    -3.619000000
H     2.370000000    -0.512000000    -1.683000000
C     2.335000000    -3.505000000    -2.311000000
C     2.382000000    -3.151000000    -3.820000000
H     2.312000000    -4.079000000    -4.391000000
H     3.362000000    -2.823000000    -4.170000000
C     1.320000000    -2.103000000    -4.143000000
C     0.009000000    -2.439000000    -4.522000000
H    -0.254000000    -3.493000000    -4.481000000
C     1.806000000    -0.779000000    -4.124000000
C     0.850000000     0.181000000    -4.469000000
H     0.978000000     1.249000000    -4.312000000
C    -0.483000000    -0.116000000    -4.755000000
O    -1.288000000     0.971000000    -4.937000000
C    -2.071000000     1.293000000    -3.774000000
C    -2.142000000     2.772000000    -3.563000000
C    -1.017000000     3.556000000    -4.006000000
H    -0.314000000     3.051000000    -4.663000000
C    -3.039000000     3.372000000    -2.674000000
H    -3.897000000     2.851000000    -2.258000000
O    -3.396000000     0.802000000    -3.886000000
H    -1.552000000     0.909000000    -2.882000000
C    -0.924000000    -1.448000000    -4.800000000
C    -2.376000000    -1.821000000    -5.040000000
H    -2.475000000    -2.779000000    -5.555000000
H    -2.840000000    -1.180000000    -5.792000000
C    -3.165000000    -1.657000000    -3.684000000
C    -3.735000000    -0.423000000    -3.305000000
C    -4.308000000    -0.324000000    -2.050000000
H    -4.582000000     0.663000000    -1.686000000
C    -4.449000000    -1.434000000    -1.191000000
O    -4.778000000    -1.125000000     0.090000000
C    -3.795000000    -1.136000000     1.120000000
H    -2.773000000    -1.170000000     0.715000000
C    -3.871000000     0.039000000     2.030000000
C    -3.046000000    -0.044000000     3.190000000
H    -2.388000000    -0.883000000     3.402000000
C    -4.636000000     1.142000000     1.780000000
H    -5.285000000     1.219000000     0.911000000
C    -4.617000000     2.247000000     2.646000000
O    -5.437000000     3.305000000     2.495000000
C    -3.784000000     2.198000000     3.775000000
H    -3.867000000     2.904000000     4.598000000
C    -3.015000000     1.064000000     4.045000000
O    -2.428000000     1.054000000     5.230000000
C    -1.969000000    -0.137000000     5.886000000
C    -0.596000000    -0.311000000     6.297000000
H     0.174000000     0.423000000     6.076000000
C    -2.910000000    -0.969000000     6.442000000
H    -3.962000000    -0.774000000     6.250000000
C    -2.526000000    -2.038000000     7.296000000
H    -3.292000000    -2.662000000     7.750000000
C    -1.182000000    -2.299000000     7.486000000
H    -0.865000000    -3.234000000     7.941000000
C    -0.197000000    -1.385000000     7.023000000
O     1.161000000    -1.701000000     7.129000000
C     1.931000000    -1.875000000     5.944000000
C     3.268000000    -1.405000000     5.903000000
H     3.777000000    -0.998000000     6.774000000
C     4.047000000    -1.603000000     4.785000000
O     5.393000000    -1.218000000     4.804000000
C     6.035000000    -0.736000000     3.687000000
C     5.418000000     0.371000000     3.074000000
H     4.423000000     0.690000000     3.374000000
C     7.262000000    -1.165000000     3.397000000
H     7.765000000    -2.020000000     3.841000000
C     7.983000000    -0.532000000     2.351000000
H     8.920000000    -0.960000000     2.004000000
C     7.417000000     0.522000000     1.705000000
H     7.976000000     0.973000000     0.889000000
C     6.207000000     1.051000000     2.126000000
O     5.595000000     2.141000000     1.515000000
C     5.012000000     2.012000000     0.302000000
C     4.800000000     3.218000000    -0.395000000
H     5.168000000     4.169000000    -0.020000000
C     4.326000000     3.246000000    -1.684000000
O     4.410000000     4.456000000    -2.271000000
C     3.581000000     4.652000000    -3.358000000
C     2.257000000     5.019000000    -3.157000000
H     1.885000000     4.974000000    -2.136000000
C     4.079000000     4.702000000    -4.596000000
H     5.145000000     4.534000000    -4.728000000
C     3.265000000     5.038000000    -5.686000000
H     3.644000000     5.054000000    -6.704000000
C     1.920000000     5.246000000    -5.592000000
H     1.265000000     5.417000000    -6.442000000
C     1.430000000     5.260000000    -4.261000000
O     0.140000000     5.643000000    -3.987000000
C    -0.840000000     4.862000000    -3.512000000
C    -1.668000000     5.417000000    -2.536000000
H    -1.551000000     6.474000000    -2.311000000
C    -2.854000000     4.709000000    -2.206000000
O    -3.696000000     5.430000000    -1.424000000
C    -4.801000000     4.980000000    -0.682000000
C    -6.059000000     5.468000000    -1.019000000
H    -6.368000000     6.114000000    -1.836000000
C    -7.140000000     5.212000000    -0.108000000
H    -8.169000000     5.497000000    -0.314000000
C    -6.929000000     4.446000000     1.058000000
H    -7.716000000     4.377000000     1.804000000
C    -5.649000000     3.992000000     1.337000000
C    -4.598000000     4.245000000     0.499000000
H    -3.572000000     4.007000000     0.769000000
C    -0.318000000     1.269000000     2.196000000
H    -0.376000000     1.369000000     3.277000000
C    -0.215000000     0.078000000     1.533000000
H    -0.277000000    -0.881000000     2.041000000
C    -0.110000000    -0.018000000     0.119000000
C    -0.049000000    -1.343000000    -0.517000000
H    -0.994000000    -1.603000000    -0.997000000
H     0.606000000    -1.394000000    -1.389000000
H     0.259000000    -2.188000000     0.103000000
C     0.047000000     1.213000000    -0.536000000
H     0.083000000     1.336000000    -1.615000000
C    -0.156000000     2.451000000     0.133000000
H    -0.221000000     3.383000000    -0.422000000
C    -0.316000000     2.499000000     1.519000000
C    -0.774000000     3.744000000     2.259000000
O    -1.245000000     4.701000000     1.685000000
O    -0.571000000     3.844000000     3.464000000
O     2.155000000     7.829000000     3.553000000
H     2.591000000     7.181000000     3.000000000
H     1.223000000     7.628000000     3.469000000
O     1.145000000     6.019000000     0.314000000
H     0.544000000     5.442000000     0.786000000
H     2.009000000     5.633000000     0.458000000
O    -0.391000000     6.818000000     3.629000000
H    -0.505000000     6.196000000     2.910000000
H    -0.871000000     6.429000000     4.360000000
O    -0.549000000     8.080000000    -0.512000000
H    -1.369000000     7.847000000    -0.076000000
H    -0.017000000     7.286000000    -0.464000000
O     3.676000000     2.574000000     5.400000000
H     3.329000000     2.564000000     4.508000000
H     4.573000000     2.897000000     5.304000000
O    -2.901000000     4.527000000     6.954000000
H    -2.983000000     3.684000000     7.400000000
H    -3.777000000     4.702000000     6.609000000
O     2.444000000     3.006000000     3.016000000
H     1.748000000     3.650000000     3.146000000
H     2.176000000     2.516000000     2.238000000
O    -0.199000000     9.284000000     5.183000000
H     0.344000000     8.792000000     4.568000000
H    -1.067000000     9.294000000     4.782000000
O    -2.602000000     6.743000000     0.708000000
H    -3.398000000     6.802000000     1.236000000
H    -2.206000000     5.910000000     0.964000000
O    -5.117000000     5.437000000     5.520000000
H    -5.479000000     5.932000000     6.255000000
H    -4.495000000     6.039000000     5.110000000
O     3.337000000     5.653000000     2.409000000
H     4.165000000     6.104000000     2.574000000
H     3.491000000     4.755000000     2.700000000
O    -5.084000000     7.274000000     1.785000000
H    -5.849000000     7.159000000     1.221000000
H    -5.432000000     7.676000000     2.581000000
O     0.252000000     2.919000000     7.807000000
H    -0.134000000     3.132000000     6.958000000
H    -0.257000000     3.429000000     8.437000000
O    -3.383000000     5.954000000     3.592000000
H    -4.144000000     5.924000000     3.013000000
H    -2.894000000     5.157000000     3.388000000
O    -3.333000000     8.520000000    -1.325000000
H    -3.122000000     7.780000000    -0.755000000
H    -2.664000000     9.175000000    -1.125000000
O     0.507000000    10.357000000     1.226000000
H    -0.206000000    10.421000000     1.862000000
H     0.280000000     9.598000000     0.689000000
O    -0.667000000     5.257000000     5.834000000
H    -1.542000000     5.127000000     6.201000000
H    -0.650000000     4.704000000     5.053000000
O    -2.807000000     8.639000000     4.018000000
H    -2.923000000     7.840000000     3.504000000
H    -3.664000000     8.793000000     4.416000000
O     1.947000000     6.450000000     7.128000000
H     2.187000000     5.624000000     7.548000000
H     1.252000000     6.213000000     6.514000000
