218
-1466.92781
C     3.276000000    -2.016000000     3.160000000
H     3.813000000    -2.006000000     2.215000000
C     2.079000000    -2.698000000     3.344000000
C     1.492000000    -2.592000000     4.635000000
H     0.553000000    -3.062000000     4.917000000
C     1.423000000    -3.422000000     2.268000000
O     2.415000000    -4.151000000     1.457000000
H     1.043000000    -2.661000000     1.571000000
O     0.380000000    -4.292000000     2.649000000
C    -0.806000000    -4.249000000     1.833000000
C    -1.958000000    -3.663000000     2.364000000
H    -1.773000000    -3.290000000     3.368000000
C    -2.983000000    -3.263000000     1.547000000
O    -3.856000000    -2.384000000     2.014000000
C    -3.043000000    -3.792000000     0.233000000
C    -4.291000000    -3.589000000    -0.657000000
H    -4.491000000    -4.345000000    -1.419000000
C    -4.040000000    -2.252000000    -1.385000000
C    -3.570000000    -2.259000000    -2.682000000
H    -3.218000000    -3.233000000    -3.013000000
H    -5.165000000    -3.622000000    -0.002000000
C    -2.020000000    -4.614000000    -0.183000000
H    -2.079000000    -4.900000000    -1.230000000
C    -0.867000000    -4.853000000     0.573000000
C     0.264000000    -5.628000000    -0.021000000
H    -0.124000000    -6.527000000    -0.504000000
H     0.697000000    -6.066000000     0.881000000
C     1.243000000    -4.646000000    -0.649000000
C     1.178000000    -4.366000000    -2.012000000
H     0.470000000    -4.904000000    -2.636000000
C     2.251000000    -3.986000000     0.137000000
C     3.035000000    -3.042000000    -0.426000000
H     3.713000000    -2.451000000     0.184000000
C     2.922000000    -2.829000000    -1.813000000
O     3.775000000    -1.809000000    -2.346000000
C     3.184000000    -0.478000000    -2.548000000
C     4.237000000     0.550000000    -2.206000000
C     4.270000000     1.728000000    -2.965000000
H     3.606000000     1.807000000    -3.822000000
C     5.131000000     0.435000000    -1.123000000
H     5.227000000    -0.500000000    -0.576000000
O     2.776000000    -0.323000000    -3.948000000
H     2.348000000    -0.378000000    -1.840000000
C     2.003000000    -3.463000000    -2.655000000
C     1.800000000    -3.077000000    -4.148000000
H     1.398000000    -3.954000000    -4.660000000
H     2.817000000    -2.910000000    -4.510000000
C     0.929000000    -1.904000000    -4.353000000
C    -0.422000000    -2.051000000    -4.676000000
H    -0.848000000    -3.046000000    -4.773000000
C     1.461000000    -0.591000000    -4.339000000
C     0.602000000     0.418000000    -4.554000000
H     0.951000000     1.442000000    -4.666000000
C    -0.749000000     0.305000000    -4.739000000
O    -1.528000000     1.439000000    -4.742000000
C    -2.216000000     1.760000000    -3.496000000
C    -2.058000000     3.188000000    -3.066000000
C    -0.812000000     3.792000000    -3.207000000
H    -0.012000000     3.202000000    -3.647000000
C    -3.130000000     3.821000000    -2.395000000
H    -4.110000000     3.352000000    -2.376000000
O    -3.589000000     1.327000000    -3.582000000
H    -1.812000000     1.211000000    -2.632000000
C    -1.296000000    -0.967000000    -4.710000000
C    -2.849000000    -1.087000000    -4.813000000
H    -2.998000000    -2.053000000    -5.300000000
H    -3.215000000    -0.263000000    -5.430000000
C    -3.381000000    -1.070000000    -3.407000000
C    -3.758000000     0.150000000    -2.887000000
C    -4.199000000     0.169000000    -1.555000000
H    -4.661000000     1.068000000    -1.154000000
C    -4.323000000    -1.003000000    -0.825000000
O    -4.692000000    -0.906000000     0.436000000
C    -3.695000000    -1.070000000     1.446000000
H    -2.699000000    -0.968000000     0.989000000
C    -3.765000000     0.042000000     2.534000000
C    -3.471000000    -0.266000000     3.854000000
H    -3.248000000    -1.274000000     4.196000000
C    -4.007000000     1.378000000     2.228000000
H    -4.172000000     1.725000000     1.211000000
C    -3.997000000     2.360000000     3.176000000
O    -4.240000000     3.607000000     2.912000000
C    -3.665000000     2.060000000     4.458000000
H    -3.676000000     2.837000000     5.218000000
C    -3.304000000     0.747000000     4.783000000
O    -2.860000000     0.472000000     6.050000000
C    -2.197000000    -0.654000000     6.469000000
C    -0.810000000    -0.652000000     6.291000000
H    -0.434000000     0.086000000     5.586000000
C    -2.810000000    -1.626000000     7.258000000
H    -3.889000000    -1.542000000     7.362000000
C    -2.040000000    -2.593000000     7.950000000
H    -2.472000000    -3.252000000     8.700000000
C    -0.634000000    -2.513000000     7.753000000
H     0.042000000    -3.184000000     8.277000000
C     0.008000000    -1.601000000     6.933000000
O     1.351000000    -1.656000000     6.856000000
C     2.038000000    -1.816000000     5.670000000
C     3.186000000    -1.096000000     5.379000000
H     3.506000000    -0.427000000     6.174000000
C     3.735000000    -1.074000000     4.122000000
O     4.753000000    -0.161000000     3.808000000
C     5.763000000    -0.445000000     2.900000000
C     6.111000000     0.558000000     2.034000000
H     5.814000000     1.578000000     2.264000000
C     6.519000000    -1.664000000     2.866000000
H     6.517000000    -2.444000000     3.623000000
C     7.497000000    -1.919000000     1.920000000
H     7.966000000    -2.900000000     1.898000000
C     7.700000000    -0.933000000     1.028000000
H     8.393000000    -1.211000000     0.239000000
C     7.014000000     0.278000000     1.019000000
O     7.223000000     1.171000000     0.009000000
C     6.199000000     1.363000000    -0.955000000
C     6.113000000     2.576000000    -1.639000000
H     6.731000000     3.438000000    -1.401000000
C     5.166000000     2.716000000    -2.666000000
O     5.156000000     3.881000000    -3.433000000
C     3.954000000     4.487000000    -3.822000000
C     2.974000000     4.821000000    -2.911000000
H     3.048000000     4.718000000    -1.832000000
C     3.687000000     4.561000000    -5.204000000
H     4.435000000     4.335000000    -5.959000000
C     2.501000000     4.996000000    -5.649000000
H     2.332000000     5.158000000    -6.711000000
C     1.492000000     5.254000000    -4.725000000
H     0.553000000     5.485000000    -5.223000000
C     1.755000000     5.187000000    -3.433000000
O     0.675000000     5.489000000    -2.573000000
C    -0.587000000     5.043000000    -2.712000000
C    -1.666000000     5.753000000    -2.173000000
H    -1.446000000     6.734000000    -1.759000000
C    -2.917000000     5.139000000    -1.989000000
O    -3.934000000     5.781000000    -1.390000000
C    -4.727000000     5.292000000    -0.306000000
C    -5.974000000     5.798000000    -0.104000000
H    -6.516000000     6.291000000    -0.906000000
C    -6.733000000     5.337000000     0.963000000
H    -7.802000000     5.531000000     0.943000000
C    -6.265000000     4.462000000     1.850000000
H    -6.883000000     3.893000000     2.541000000
C    -4.906000000     4.101000000     1.823000000
C    -4.160000000     4.536000000     0.715000000
H    -3.110000000     4.254000000     0.707000000
C     1.703000000     0.971000000     2.410000000
H     1.973000000     0.698000000     3.427000000
C     0.905000000     0.114000000     1.645000000
H     0.569000000    -0.781000000     2.162000000
C     0.724000000     0.387000000     0.296000000
C    -0.113000000    -0.474000000    -0.576000000
H     0.300000000    -1.458000000    -0.808000000
H    -0.979000000    -0.706000000     0.048000000
H    -0.435000000     0.082000000    -1.459000000
C     1.388000000     1.467000000    -0.299000000
H     1.338000000     1.764000000    -1.344000000
C     2.172000000     2.298000000     0.454000000
H     2.725000000     3.060000000    -0.089000000
C     2.233000000     2.121000000     1.872000000
C     2.931000000     3.101000000     2.732000000
O     3.460000000     4.121000000     2.241000000
O     2.950000000     3.014000000     3.949000000
O     5.103000000     5.225000000     0.572000000
H     4.470000000     4.713000000     1.075000000
H     5.956000000     4.909000000     0.868000000
O     1.930000000     5.722000000     4.022000000
H     2.324000000     4.910000000     3.702000000
H     2.153000000     6.374000000     3.358000000
O    -0.948000000     6.015000000     1.013000000
H    -0.854000000     5.300000000     1.642000000
H    -0.121000000     6.021000000     0.531000000
O     0.670000000     6.467000000     6.362000000
H     0.269000000     7.335000000     6.359000000
H     1.018000000     6.360000000     5.477000000
O     1.832000000     1.572000000     7.209000000
H     2.375000000     0.832000000     7.483000000
H     1.064000000     1.528000000     7.779000000
O     5.335000000     5.268000000     3.895000000
H     4.560000000     4.985000000     3.410000000
H     6.072000000     4.915000000     3.397000000
O     5.928000000     7.775000000     3.556000000
H     6.598000000     7.656000000     2.883000000
H     5.516000000     6.915000000     3.637000000
O     4.763000000     5.846000000     6.602000000
H     4.722000000     6.100000000     5.680000000
H     4.219000000     5.061000000     6.658000000
O     3.063000000     8.059000000     2.196000000
H     3.645000000     8.461000000     2.842000000
H     2.543000000     8.787000000     1.857000000
O    -0.651000000     3.522000000     1.974000000
H    -0.779000000     2.926000000     2.712000000
H    -0.368000000     2.957000000     1.256000000
O    -0.490000000     4.276000000     7.220000000
H    -1.233000000     4.324000000     6.618000000
H     0.078000000     5.001000000     6.957000000
O     7.358000000     4.110000000     1.750000000
H     8.023000000     4.772000000     1.938000000
H     7.780000000     3.515000000     1.131000000
O     5.501000000     1.995000000     5.749000000
H     5.183000000     2.831000000     5.409000000
H     5.194000000     1.347000000     5.115000000
O     4.759000000     1.458000000     8.438000000
H     5.073000000     2.196000000     8.961000000
H     4.818000000     1.764000000     7.533000000
O     0.206000000     2.752000000     4.761000000
H     0.379000000     2.746000000     5.702000000
H     1.075000000     2.775000000     4.358000000
O     4.435000000     7.816000000    -0.111000000
H     4.901000000     6.987000000    -0.006000000
H     3.875000000     7.877000000     0.663000000
O     2.037000000     5.878000000     0.201000000
H     1.977000000     4.968000000     0.490000000
H     2.882000000     6.181000000     0.533000000
O     3.065000000     3.868000000     6.621000000
H     2.781000000     3.021000000     6.965000000
H     2.928000000     3.801000000     5.676000000
O    -2.113000000     5.082000000     5.151000000
H    -1.734000000     4.377000000     4.626000000
H    -1.674000000     5.874000000     4.841000000
