218
-1459.73395
C     3.997000000    -1.968000000     3.761000000
H     4.682000000    -2.182000000     2.944000000
C     2.697000000    -2.422000000     3.656000000
C     1.847000000    -2.125000000     4.720000000
H     0.803000000    -2.428000000     4.713000000
C     2.081000000    -3.114000000     2.332000000
O     3.065000000    -3.725000000     1.541000000
H     1.698000000    -2.325000000     1.667000000
O     1.164000000    -4.210000000     2.758000000
C    -0.018000000    -4.276000000     2.046000000
C    -1.154000000    -3.621000000     2.494000000
H    -1.118000000    -3.190000000     3.491000000
C    -2.237000000    -3.508000000     1.717000000
O    -3.299000000    -2.720000000     2.138000000
C    -2.327000000    -4.074000000     0.458000000
C    -3.559000000    -4.109000000    -0.389000000
H    -3.701000000    -5.052000000    -0.920000000
C    -3.655000000    -2.959000000    -1.333000000
C    -3.143000000    -3.071000000    -2.615000000
H    -2.660000000    -3.992000000    -2.930000000
H    -4.378000000    -4.110000000     0.333000000
C    -1.238000000    -4.800000000    -0.019000000
H    -1.272000000    -5.208000000    -1.026000000
C    -0.033000000    -4.741000000     0.708000000
C     1.185000000    -5.335000000     0.084000000
H     0.773000000    -6.044000000    -0.637000000
H     1.830000000    -5.851000000     0.799000000
C     2.090000000    -4.341000000    -0.590000000
C     2.024000000    -4.101000000    -1.972000000
H     1.509000000    -4.723000000    -2.700000000
C     3.035000000    -3.638000000     0.172000000
C     3.812000000    -2.689000000    -0.479000000
H     4.334000000    -2.029000000     0.210000000
C     3.723000000    -2.389000000    -1.846000000
O     4.216000000    -1.178000000    -2.215000000
C     3.282000000    -0.139000000    -2.408000000
C     3.798000000     1.170000000    -1.820000000
C     3.529000000     2.374000000    -2.481000000
H     3.094000000     2.255000000    -3.469000000
C     4.323000000     1.177000000    -0.502000000
H     4.330000000     0.244000000     0.055000000
O     2.969000000    -0.095000000    -3.872000000
H     2.370000000    -0.279000000    -1.808000000
C     2.875000000    -3.201000000    -2.636000000
C     2.559000000    -2.963000000    -4.109000000
H     2.390000000    -3.883000000    -4.673000000
H     3.495000000    -2.702000000    -4.609000000
C     1.512000000    -1.938000000    -4.338000000
C     0.196000000    -2.406000000    -4.591000000
H    -0.016000000    -3.465000000    -4.713000000
C     1.776000000    -0.521000000    -4.283000000
C     0.743000000     0.318000000    -4.383000000
H     0.954000000     1.378000000    -4.269000000
C    -0.519000000    -0.168000000    -4.593000000
O    -1.478000000     0.806000000    -4.655000000
C    -2.180000000     1.049000000    -3.407000000
C    -2.314000000     2.555000000    -3.195000000
C    -1.329000000     3.478000000    -3.619000000
H    -0.422000000     3.079000000    -4.065000000
C    -3.457000000     3.091000000    -2.533000000
H    -4.215000000     2.386000000    -2.204000000
O    -3.467000000     0.511000000    -3.532000000
H    -1.640000000     0.608000000    -2.556000000
C    -0.865000000    -1.521000000    -4.673000000
C    -2.334000000    -2.000000000    -4.743000000
H    -2.262000000    -3.064000000    -4.976000000
H    -2.803000000    -1.514000000    -5.601000000
C    -3.049000000    -1.909000000    -3.428000000
C    -3.636000000    -0.725000000    -2.926000000
C    -4.199000000    -0.628000000    -1.661000000
H    -4.474000000     0.357000000    -1.291000000
C    -4.183000000    -1.749000000    -0.851000000
O    -4.562000000    -1.547000000     0.484000000
C    -3.484000000    -1.429000000     1.463000000
H    -2.595000000    -1.168000000     0.870000000
C    -3.779000000    -0.215000000     2.374000000
C    -3.060000000    -0.190000000     3.570000000
H    -2.360000000    -1.005000000     3.739000000
C    -4.423000000     0.933000000     1.925000000
H    -4.921000000     0.870000000     0.960000000
C    -4.585000000     2.030000000     2.736000000
O    -5.315000000     3.187000000     2.461000000
C    -3.799000000     2.055000000     3.956000000
H    -3.783000000     2.889000000     4.654000000
C    -3.073000000     0.929000000     4.366000000
O    -2.484000000     0.737000000     5.572000000
C    -1.894000000    -0.353000000     6.104000000
C    -0.525000000    -0.398000000     6.139000000
H     0.110000000     0.338000000     5.653000000
C    -2.666000000    -1.152000000     6.968000000
H    -3.749000000    -1.063000000     6.996000000
C    -2.004000000    -1.993000000     7.885000000
H    -2.466000000    -2.742000000     8.524000000
C    -0.631000000    -2.032000000     7.909000000
H    -0.057000000    -2.717000000     8.528000000
C     0.107000000    -1.348000000     6.954000000
O     1.479000000    -1.416000000     6.909000000
C     2.284000000    -1.464000000     5.841000000
C     3.572000000    -0.909000000     5.877000000
H     3.978000000    -0.392000000     6.743000000
C     4.398000000    -1.229000000     4.846000000
O     5.669000000    -0.732000000     4.866000000
C     6.189000000    -0.071000000     3.794000000
C     5.417000000     0.860000000     3.123000000
H     4.526000000     1.283000000     3.579000000
C     7.417000000    -0.425000000     3.296000000
H     7.995000000    -1.145000000     3.870000000
C     7.947000000     0.126000000     2.138000000
H     8.901000000    -0.233000000     1.763000000
C     7.154000000     1.040000000     1.491000000
H     7.555000000     1.530000000     0.607000000
C     5.943000000     1.461000000     2.021000000
O     5.285000000     2.512000000     1.373000000
C     4.768000000     2.432000000     0.082000000
C     4.608000000     3.598000000    -0.695000000
H     4.931000000     4.555000000    -0.294000000
C     4.036000000     3.597000000    -1.952000000
O     3.813000000     4.823000000    -2.590000000
C     2.876000000     4.963000000    -3.638000000
C     1.557000000     5.407000000    -3.307000000
H     1.261000000     5.442000000    -2.262000000
C     3.193000000     4.673000000    -4.922000000
H     4.196000000     4.380000000    -5.221000000
C     2.246000000     4.863000000    -5.974000000
H     2.456000000     4.752000000    -7.035000000
C     0.936000000     5.144000000    -5.682000000
H     0.175000000     5.209000000    -6.455000000
C     0.621000000     5.492000000    -4.353000000
O    -0.707000000     5.773000000    -4.140000000
C    -1.554000000     4.847000000    -3.529000000
C    -2.793000000     5.308000000    -3.097000000
H    -2.892000000     6.390000000    -3.144000000
C    -3.720000000     4.458000000    -2.477000000
O    -4.850000000     4.957000000    -1.910000000
C    -5.663000000     4.371000000    -0.982000000
C    -7.005000000     4.082000000    -1.226000000
H    -7.400000000     4.334000000    -2.207000000
C    -7.845000000     3.645000000    -0.206000000
H    -8.867000000     3.350000000    -0.430000000
C    -7.285000000     3.322000000     1.060000000
H    -7.797000000     3.048000000     1.979000000
C    -5.909000000     3.456000000     1.249000000
C    -5.125000000     4.052000000     0.266000000
H    -4.064000000     4.175000000     0.470000000
C    -0.578000000     2.350000000     2.193000000
H    -0.872000000     2.514000000     3.227000000
C    -0.152000000     1.085000000     1.793000000
H    -0.011000000     0.340000000     2.572000000
C     0.151000000     0.795000000     0.500000000
C     0.509000000    -0.613000000     0.021000000
H     0.339000000    -0.721000000    -1.053000000
H     1.564000000    -0.737000000     0.276000000
H    -0.112000000    -1.364000000     0.512000000
C     0.066000000     1.776000000    -0.499000000
H     0.269000000     1.573000000    -1.548000000
C    -0.275000000     3.080000000    -0.074000000
H    -0.294000000     3.848000000    -0.843000000
C    -0.670000000     3.335000000     1.248000000
C    -1.150000000     4.720000000     1.604000000
O    -1.187000000     5.569000000     0.785000000
O    -1.521000000     5.045000000     2.704000000
O     2.278000000     8.103000000     3.639000000
H     2.735000000     7.388000000     3.195000000
H     1.379000000     7.789000000     3.736000000
O     2.768000000     7.576000000    -0.013000000
H     1.913000000     7.624000000    -0.440000000
H     2.734000000     6.770000000     0.502000000
O    -0.577000000     7.737000000     2.719000000
H    -1.167000000     8.222000000     2.141000000
H    -0.768000000     6.817000000     2.538000000
O     0.040000000     7.235000000    -0.962000000
H    -0.245000000     6.735000000    -0.197000000
H    -0.415000000     8.073000000    -0.883000000
O     2.319000000     4.294000000     3.953000000
H     1.426000000     3.997000000     4.128000000
H     2.871000000     3.711000000     4.474000000
O    -0.529000000     9.823000000     4.749000000
H    -0.305000000     9.148000000     4.108000000
H    -1.485000000     9.873000000     4.720000000
O    -2.812000000     7.313000000    -0.014000000
H    -3.625000000     7.348000000     0.490000000
H    -2.329000000     6.576000000     0.362000000
O    -2.932000000     5.523000000     6.331000000
H    -3.355000000     6.257000000     6.776000000
H    -3.194000000     5.615000000     5.415000000
O     3.387000000     5.963000000     2.154000000
H     4.201000000     5.464000000     2.221000000
H     2.730000000     5.407000000     2.573000000
O    -4.765000000     7.570000000     1.815000000
H    -5.585000000     7.671000000     1.333000000
H    -4.801000000     8.245000000     2.493000000
O     0.369000000     2.546000000     7.451000000
H     0.104000000     2.983000000     6.641000000
H    -0.343000000     2.728000000     8.064000000
O    -4.058000000     5.638000000     3.843000000
H    -4.452000000     6.024000000     3.061000000
H    -3.254000000     5.225000000     3.526000000
O    -3.651000000     8.876000000    -2.183000000
H    -3.462000000     8.628000000    -1.278000000
H    -2.807000000     9.157000000    -2.536000000
O    -0.170000000    10.184000000    -0.298000000
H    -0.979000000    10.222000000     0.211000000
H     0.409000000    10.819000000     0.123000000
O     2.780000000     9.740000000     1.432000000
H     3.065000000     9.045000000     0.839000000
H     2.361000000     9.277000000     2.158000000
O    -0.636000000     8.658000000    -3.465000000
H     0.137000000     9.217000000    -3.384000000
H    -0.407000000     7.862000000    -2.985000000
O    -0.673000000     4.186000000     5.172000000
H    -1.230000000     4.541000000     5.864000000
H    -1.110000000     4.439000000     4.359000000
O    -3.329000000     9.059000000     4.613000000
H    -3.135000000     8.163000000     4.336000000
H    -4.265000000     9.165000000     4.443000000
O     1.162000000     6.091000000     6.343000000
H     2.101000000     6.130000000     6.158000000
H     0.811000000     5.502000000     5.676000000
