218
-1487.39947
C     3.782000000    -2.351000000     3.135000000
H     4.372000000    -2.675000000     2.282000000
C     2.426000000    -2.749000000     3.280000000
C     1.674000000    -2.139000000     4.244000000
H     0.656000000    -2.510000000     4.328000000
C     1.696000000    -3.513000000     2.196000000
O     2.543000000    -4.392000000     1.443000000
H     1.442000000    -2.694000000     1.507000000
O     0.447000000    -4.160000000     2.668000000
C    -0.689000000    -4.155000000     1.951000000
C    -1.733000000    -3.476000000     2.443000000
H    -1.527000000    -3.017000000     3.407000000
C    -2.948000000    -3.316000000     1.725000000
O    -3.892000000    -2.384000000     2.203000000
C    -3.052000000    -3.812000000     0.416000000
C    -4.264000000    -3.670000000    -0.489000000
H    -4.334000000    -4.482000000    -1.216000000
C    -4.189000000    -2.352000000    -1.244000000
C    -3.595000000    -2.344000000    -2.468000000
H    -3.207000000    -3.261000000    -2.902000000
H    -5.207000000    -3.702000000     0.061000000
C    -1.997000000    -4.628000000    -0.072000000
H    -2.147000000    -5.180000000    -0.996000000
C    -0.823000000    -4.768000000     0.699000000
C     0.313000000    -5.628000000     0.140000000
H    -0.224000000    -6.341000000    -0.489000000
H     0.703000000    -6.315000000     0.894000000
C     1.349000000    -4.763000000    -0.553000000
C     1.015000000    -4.383000000    -1.828000000
H     0.116000000    -4.752000000    -2.315000000
C     2.428000000    -4.201000000     0.091000000
C     3.190000000    -3.218000000    -0.539000000
H     3.998000000    -2.738000000     0.008000000
C     2.944000000    -2.877000000    -1.827000000
O     3.670000000    -1.786000000    -2.256000000
C     3.035000000    -0.507000000    -2.371000000
C     3.959000000     0.659000000    -1.974000000
C     3.760000000     1.920000000    -2.480000000
H     2.875000000     2.116000000    -3.080000000
C     4.930000000     0.523000000    -0.963000000
H     5.157000000    -0.465000000    -0.572000000
O     2.647000000    -0.309000000    -3.785000000
H     2.202000000    -0.548000000    -1.654000000
C     1.916000000    -3.480000000    -2.561000000
C     1.749000000    -3.177000000    -4.021000000
H     1.305000000    -3.996000000    -4.591000000
H     2.710000000    -2.946000000    -4.486000000
C     0.928000000    -1.907000000    -4.133000000
C    -0.479000000    -2.095000000    -4.440000000
H    -0.867000000    -3.110000000    -4.426000000
C     1.348000000    -0.570000000    -4.135000000
C     0.452000000     0.509000000    -4.224000000
H     0.841000000     1.524000000    -4.253000000
C    -0.912000000     0.270000000    -4.442000000
O    -1.753000000     1.368000000    -4.463000000
C    -2.444000000     1.724000000    -3.256000000
C    -2.399000000     3.178000000    -3.052000000
C    -1.290000000     3.857000000    -3.518000000
H    -0.556000000     3.369000000    -4.154000000
C    -3.313000000     3.924000000    -2.310000000
H    -4.177000000     3.433000000    -1.871000000
O    -3.777000000     1.254000000    -3.212000000
H    -1.846000000     1.372000000    -2.402000000
C    -1.372000000    -0.993000000    -4.481000000
C    -2.832000000    -1.264000000    -4.584000000
H    -3.010000000    -2.243000000    -5.033000000
H    -3.468000000    -0.555000000    -5.119000000
C    -3.450000000    -1.143000000    -3.204000000
C    -3.927000000     0.029000000    -2.579000000
C    -4.555000000    -0.015000000    -1.349000000
H    -4.939000000     0.883000000    -0.872000000
C    -4.609000000    -1.153000000    -0.614000000
O    -4.867000000    -0.982000000     0.738000000
C    -3.774000000    -1.093000000     1.630000000
H    -2.777000000    -0.961000000     1.185000000
C    -3.904000000    -0.052000000     2.681000000
C    -3.375000000    -0.359000000     3.936000000
H    -3.124000000    -1.368000000     4.251000000
C    -4.150000000     1.307000000     2.358000000
H    -4.283000000     1.589000000     1.317000000
C    -4.101000000     2.348000000     3.309000000
O    -4.178000000     3.648000000     2.849000000
C    -3.691000000     1.999000000     4.612000000
H    -3.696000000     2.745000000     5.402000000
C    -3.390000000     0.670000000     4.897000000
O    -3.100000000     0.296000000     6.195000000
C    -2.007000000    -0.478000000     6.542000000
C    -0.695000000    -0.317000000     6.029000000
H    -0.444000000     0.478000000     5.331000000
C    -2.295000000    -1.437000000     7.499000000
H    -3.324000000    -1.507000000     7.841000000
C    -1.272000000    -2.357000000     7.910000000
H    -1.408000000    -3.235000000     8.535000000
C     0.043000000    -2.192000000     7.424000000
H     0.849000000    -2.811000000     7.811000000
C     0.320000000    -1.137000000     6.541000000
O     1.608000000    -0.810000000     6.250000000
C     2.298000000    -1.371000000     5.211000000
C     3.700000000    -1.089000000     5.145000000
H     4.175000000    -0.460000000     5.894000000
C     4.466000000    -1.634000000     4.115000000
O     5.807000000    -1.342000000     3.995000000
C     6.534000000    -1.120000000     2.836000000
C     6.287000000     0.035000000     2.133000000
H     5.466000000     0.663000000     2.469000000
C     7.477000000    -1.994000000     2.421000000
H     7.560000000    -2.928000000     2.971000000
C     8.248000000    -1.752000000     1.271000000
H     8.916000000    -2.531000000     0.911000000
C     8.015000000    -0.607000000     0.575000000
H     8.533000000    -0.344000000    -0.344000000
C     7.083000000     0.315000000     1.023000000
O     6.801000000     1.486000000     0.340000000
C     5.714000000     1.564000000    -0.497000000
C     5.612000000     2.753000000    -1.210000000
H     6.254000000     3.559000000    -0.863000000
C     4.535000000     2.979000000    -2.075000000
O     4.330000000     4.247000000    -2.642000000
C     3.398000000     4.611000000    -3.676000000
C     2.114000000     5.078000000    -3.300000000
H     1.874000000     5.390000000    -2.286000000
C     3.692000000     4.408000000    -5.056000000
H     4.557000000     3.809000000    -5.330000000
C     2.759000000     4.827000000    -5.964000000
H     2.981000000     4.593000000    -7.002000000
C     1.505000000     5.432000000    -5.604000000
H     0.804000000     5.690000000    -6.394000000
C     1.151000000     5.443000000    -4.275000000
O    -0.068000000     5.941000000    -3.910000000
C    -1.129000000     5.235000000    -3.386000000
C    -2.047000000     5.938000000    -2.666000000
H    -1.838000000     6.992000000    -2.504000000
C    -3.087000000     5.286000000    -2.092000000
O    -4.045000000     6.014000000    -1.361000000
C    -4.806000000     5.408000000    -0.403000000
C    -6.219000000     5.502000000    -0.327000000
H    -6.817000000     6.057000000    -1.045000000
C    -6.944000000     4.781000000     0.590000000
H    -8.029000000     4.764000000     0.522000000
C    -6.312000000     4.234000000     1.697000000
H    -6.907000000     3.783000000     2.488000000
C    -4.912000000     4.150000000     1.776000000
C    -4.175000000     4.707000000     0.686000000
H    -3.093000000     4.767000000     0.776000000
C     1.008000000     0.557000000     2.244000000
H     1.104000000     0.326000000     3.302000000
C     0.211000000    -0.264000000     1.446000000
H    -0.278000000    -1.177000000     1.776000000
C     0.030000000     0.028000000     0.079000000
C    -0.751000000    -0.865000000    -0.747000000
H    -1.765000000    -0.508000000    -0.937000000
H    -0.289000000    -0.993000000    -1.728000000
H    -0.785000000    -1.902000000    -0.405000000
C     0.734000000     1.144000000    -0.437000000
H     0.439000000     1.468000000    -1.432000000
C     1.420000000     1.979000000     0.405000000
H     1.831000000     2.918000000     0.044000000
C     1.601000000     1.714000000     1.762000000
C     2.484000000     2.622000000     2.630000000
O     2.985000000     3.618000000     2.151000000
O     2.660000000     2.366000000     3.872000000
O     6.159000000     6.740000000     3.512000000
H     7.075000000     6.851000000     3.255000000
H     6.119000000     5.858000000     3.880000000
O     3.807000000     5.522000000     0.675000000
H     3.587000000     4.808000000     1.273000000
H     4.753000000     5.633000000     0.772000000
O     2.502000000     5.305000000     4.091000000
H     2.544000000     4.621000000     3.422000000
H     2.942000000     4.923000000     4.851000000
O    -0.564000000     5.074000000     0.652000000
H    -0.652000000     4.243000000     1.119000000
H     0.375000000     5.156000000     0.484000000
O     4.470000000     7.297000000     6.580000000
H     3.912000000     6.744000000     7.127000000
H     4.206000000     7.091000000     5.683000000
O     5.679000000     3.389000000     2.349000000
H     4.753000000     3.628000000     2.375000000
H     5.730000000     2.703000000     1.683000000
O     3.950000000     7.927000000     2.003000000
H     3.895000000     7.258000000     1.321000000
H     4.621000000     7.602000000     2.603000000
O     7.010000000     4.254000000     5.734000000
H     6.942000000     4.127000000     6.681000000
H     6.384000000     3.632000000     5.364000000
O     8.348000000     4.453000000     3.467000000
H     7.901000000     4.249000000     4.289000000
H     7.755000000     4.133000000     2.787000000
O     1.270000000     8.582000000     2.277000000
H     2.219000000     8.475000000     2.218000000
H     1.138000000     9.528000000     2.332000000
O    -0.870000000     2.896000000     2.296000000
H    -1.191000000     2.901000000     3.197000000
H    -1.008000000     1.998000000     1.996000000
O     0.956000000     7.256000000     4.757000000
H     0.956000000     7.811000000     3.977000000
H     1.603000000     6.577000000     4.567000000
O     5.272000000     2.315000000     4.766000000
H     4.320000000     2.217000000     4.730000000
H     5.516000000     2.595000000     3.884000000
O     5.700000000     1.195000000     7.532000000
H     5.677000000     1.937000000     8.135000000
H     5.314000000     1.531000000     6.723000000
O    -0.879000000     3.439000000     5.326000000
H    -1.362000000     4.240000000     5.121000000
H     0.035000000     3.658000000     5.147000000
O    -0.999000000     2.855000000     8.223000000
H    -1.873000000     3.243000000     8.256000000
H    -0.718000000     2.975000000     7.316000000
O     1.994000000     7.232000000    -0.525000000
H     2.662000000     6.613000000    -0.231000000
H     1.800000000     7.761000000     0.248000000
O     2.743000000     1.755000000     6.415000000
H     2.360000000     0.892000000     6.576000000
H     2.484000000     1.968000000     5.518000000
O     3.640000000     4.496000000     6.597000000
H     2.869000000     4.830000000     7.057000000
H     3.488000000     3.554000000     6.526000000
