218
-1463.47600
C     4.117000000    -1.827000000     3.053000000
H     4.522000000    -2.457000000     2.265000000
C     2.759000000    -2.093000000     3.382000000
C     2.180000000    -1.358000000     4.391000000
H     1.101000000    -1.387000000     4.523000000
C     1.828000000    -2.951000000     2.509000000
O     2.635000000    -3.775000000     1.679000000
H     1.249000000    -2.220000000     1.924000000
O     0.873000000    -3.688000000     3.367000000
C    -0.379000000    -3.701000000     2.736000000
C    -1.436000000    -2.931000000     3.281000000
H    -1.196000000    -2.387000000     4.190000000
C    -2.653000000    -2.773000000     2.670000000
O    -3.554000000    -1.845000000     3.126000000
C    -2.906000000    -3.580000000     1.539000000
C    -4.288000000    -3.410000000     0.873000000
H    -4.672000000    -4.349000000     0.467000000
C    -4.323000000    -2.345000000    -0.136000000
C    -4.074000000    -2.640000000    -1.489000000
H    -4.106000000    -3.683000000    -1.795000000
H    -5.070000000    -3.218000000     1.611000000
C    -1.888000000    -4.358000000     1.046000000
H    -2.154000000    -5.034000000     0.237000000
C    -0.658000000    -4.472000000     1.629000000
C     0.344000000    -5.422000000     0.920000000
H    -0.255000000    -6.153000000     0.372000000
H     0.872000000    -6.034000000     1.654000000
C     1.141000000    -4.600000000    -0.074000000
C     0.776000000    -4.613000000    -1.435000000
H    -0.133000000    -5.080000000    -1.806000000
C     2.289000000    -3.949000000     0.332000000
C     3.018000000    -3.285000000    -0.673000000
H     3.892000000    -2.759000000    -0.298000000
C     2.661000000    -3.368000000    -2.028000000
O     3.352000000    -2.583000000    -2.920000000
C     2.807000000    -1.292000000    -3.319000000
C     3.684000000    -0.015000000    -3.068000000
C     3.416000000     1.148000000    -3.768000000
H     2.643000000     1.143000000    -4.532000000
C     4.722000000    -0.039000000    -2.084000000
H     4.906000000    -0.935000000    -1.496000000
O     2.098000000    -1.351000000    -4.560000000
H     2.029000000    -1.112000000    -2.563000000
C     1.528000000    -4.090000000    -2.421000000
C     1.116000000    -3.969000000    -3.876000000
H     0.674000000    -4.881000000    -4.285000000
H     1.991000000    -3.925000000    -4.528000000
C     0.168000000    -2.781000000    -4.088000000
C    -1.222000000    -2.869000000    -3.991000000
H    -1.730000000    -3.817000000    -3.837000000
C     0.681000000    -1.533000000    -4.506000000
C    -0.087000000    -0.425000000    -4.711000000
H     0.347000000     0.534000000    -4.982000000
C    -1.412000000    -0.486000000    -4.381000000
O    -2.056000000     0.698000000    -4.351000000
C    -2.664000000     1.268000000    -3.110000000
C    -2.515000000     2.791000000    -3.120000000
C    -1.292000000     3.334000000    -3.298000000
H    -0.431000000     2.716000000    -3.544000000
C    -3.533000000     3.627000000    -2.733000000
H    -4.485000000     3.120000000    -2.601000000
O    -3.958000000     0.725000000    -2.902000000
H    -2.004000000     0.957000000    -2.286000000
C    -2.022000000    -1.698000000    -4.153000000
C    -3.522000000    -1.875000000    -3.874000000
H    -3.866000000    -2.869000000    -4.167000000
H    -4.065000000    -1.170000000    -4.506000000
C    -3.898000000    -1.599000000    -2.421000000
C    -4.133000000    -0.304000000    -2.074000000
C    -4.508000000    -0.045000000    -0.742000000
H    -4.597000000     0.996000000    -0.443000000
C    -4.549000000    -1.018000000     0.213000000
O    -4.753000000    -0.637000000     1.496000000
C    -3.548000000    -0.609000000     2.326000000
H    -2.694000000    -0.627000000     1.633000000
C    -3.385000000     0.590000000     3.183000000
C    -2.768000000     0.515000000     4.398000000
H    -2.354000000    -0.397000000     4.820000000
C    -3.710000000     1.854000000     2.625000000
H    -4.096000000     1.934000000     1.612000000
C    -3.517000000     3.037000000     3.379000000
O    -3.742000000     4.287000000     2.821000000
C    -3.037000000     2.901000000     4.704000000
H    -2.763000000     3.813000000     5.227000000
C    -2.632000000     1.650000000     5.188000000
O    -2.056000000     1.703000000     6.408000000
C    -1.119000000     0.736000000     6.689000000
C     0.193000000     0.962000000     6.320000000
H     0.446000000     1.805000000     5.682000000
C    -1.359000000    -0.457000000     7.378000000
H    -2.394000000    -0.614000000     7.668000000
C    -0.332000000    -1.378000000     7.632000000
H    -0.682000000    -2.279000000     8.129000000
C     1.004000000    -1.093000000     7.394000000
H     1.813000000    -1.809000000     7.519000000
C     1.239000000     0.108000000     6.635000000
O     2.477000000     0.395000000     6.115000000
C     3.023000000    -0.450000000     5.136000000
C     4.369000000    -0.338000000     4.885000000
H     4.990000000     0.316000000     5.491000000
C     4.960000000    -1.026000000     3.865000000
O     6.260000000    -0.899000000     3.599000000
C     6.741000000    -0.800000000     2.286000000
C     6.267000000     0.242000000     1.531000000
H     5.500000000     0.944000000     1.847000000
C     7.701000000    -1.665000000     1.880000000
H     8.018000000    -2.413000000     2.602000000
C     8.303000000    -1.530000000     0.655000000
H     9.102000000    -2.206000000     0.361000000
C     7.713000000    -0.620000000    -0.209000000
H     8.034000000    -0.696000000    -1.245000000
C     6.710000000     0.260000000     0.188000000
O     6.276000000     1.260000000    -0.681000000
C     5.415000000     1.120000000    -1.743000000
C     5.262000000     2.199000000    -2.611000000
H     5.964000000     2.997000000    -2.384000000
C     4.300000000     2.205000000    -3.603000000
O     4.219000000     3.276000000    -4.442000000
C     3.055000000     3.804000000    -4.912000000
C     2.234000000     4.382000000    -3.969000000
H     2.579000000     4.374000000    -2.939000000
C     2.664000000     3.831000000    -6.259000000
H     3.261000000     3.358000000    -7.034000000
C     1.437000000     4.302000000    -6.652000000
H     1.219000000     4.429000000    -7.709000000
C     0.618000000     4.860000000    -5.661000000
H    -0.371000000     5.198000000    -5.957000000
C     0.997000000     4.876000000    -4.307000000
O     0.139000000     5.337000000    -3.314000000
C    -1.060000000     4.735000000    -3.045000000
C    -2.129000000     5.520000000    -2.569000000
H    -2.002000000     6.539000000    -2.213000000
C    -3.400000000     4.967000000    -2.500000000
O    -4.296000000     5.687000000    -1.720000000
C    -4.852000000     5.211000000    -0.585000000
C    -6.224000000     4.929000000    -0.449000000
H    -6.876000000     5.272000000    -1.248000000
C    -6.767000000     4.384000000     0.723000000
H    -7.839000000     4.201000000     0.735000000
C    -5.968000000     4.262000000     1.809000000
H    -6.380000000     3.978000000     2.775000000
C    -4.586000000     4.490000000     1.761000000
C    -4.030000000     4.892000000     0.518000000
H    -2.961000000     4.992000000     0.349000000
C     1.211000000     1.356000000     2.550000000
H     1.034000000     1.536000000     3.607000000
C     0.545000000     0.352000000     1.824000000
H    -0.208000000    -0.254000000     2.322000000
C     0.737000000     0.059000000     0.495000000
C    -0.032000000    -1.009000000    -0.124000000
H    -0.781000000    -0.640000000    -0.828000000
H     0.598000000    -1.735000000    -0.642000000
H    -0.493000000    -1.690000000     0.594000000
C     1.654000000     0.824000000    -0.254000000
H     1.721000000     0.552000000    -1.304000000
C     2.296000000     1.855000000     0.355000000
H     2.988000000     2.492000000    -0.189000000
C     2.124000000     2.119000000     1.768000000
C     2.917000000     3.220000000     2.357000000
O     3.605000000     3.936000000     1.651000000
O     2.830000000     3.476000000     3.552000000
O     5.371000000     8.576000000     3.693000000
H     6.220000000     8.532000000     4.133000000
H     4.997000000     7.702000000     3.807000000
O     4.160000000     5.983000000     3.363000000
H     3.914000000     5.353000000     2.685000000
H     3.378000000     6.065000000     3.909000000
O     3.000000000     7.314000000    -2.009000000
H     3.878000000     6.993000000    -2.216000000
H     3.139000000     7.971000000    -1.327000000
O     5.469000000     2.980000000     3.930000000
H     4.558000000     2.721000000     4.069000000
H     5.449000000     3.498000000     3.125000000
O     7.032000000     5.430000000     4.789000000
H     6.536000000     4.813000000     4.251000000
H     6.956000000     6.265000000     4.328000000
O     1.212000000     5.325000000    -0.616000000
H     0.845000000     5.218000000    -1.493000000
H     1.889000000     5.993000000    -0.719000000
O    -1.236000000     8.267000000     1.782000000
H    -1.165000000     7.324000000     1.929000000
H    -0.664000000     8.656000000     2.444000000
O     5.579000000     4.217000000     7.842000000
H     6.074000000     4.003000000     7.051000000
H     5.158000000     5.053000000     7.642000000
O     7.225000000     5.053000000    -1.509000000
H     7.850000000     5.646000000    -1.091000000
H     6.584000000     4.858000000    -0.826000000
O     2.054000000     4.148000000     8.880000000
H     1.186000000     4.469000000     8.638000000
H     2.437000000     3.848000000     8.055000000
O     4.497000000     5.385000000    -0.477000000
H     5.208000000     6.002000000    -0.301000000
H     4.257000000     5.045000000     0.385000000
O     4.416000000     8.691000000     0.547000000
H     4.714000000     8.879000000     1.437000000
H     3.551000000     8.298000000     0.662000000
O    -0.185000000     4.858000000     1.339000000
H    -0.155000000     3.907000000     1.229000000
H     0.209000000     5.204000000     0.539000000
O     8.316000000     1.585000000     3.417000000
H     7.500000000     1.813000000     3.863000000
H     9.004000000     1.934000000     3.983000000
O     6.194000000     3.652000000     1.125000000
H     6.433000000     2.764000000     0.859000000
H     5.238000000     3.662000000     1.096000000
O     1.717000000     5.980000000     6.257000000
H     0.931000000     5.582000000     6.631000000
H     1.684000000     5.749000000     5.329000000
O     1.731000000     7.873000000     1.065000000
H     1.567000000     7.000000000     1.422000000
H     1.195000000     8.456000000     1.603000000
O     2.826000000     3.265000000     6.233000000
H     3.525000000     2.618000000     6.333000000
H     2.695000000     3.332000000     5.287000000
O     1.135000000     5.470000000     3.606000000
H     0.382000000     5.259000000     3.054000000
H     1.702000000     4.701000000     3.541000000
