218
-1465.49112
C     4.441000000    -2.169000000     2.468000000
H     4.865000000    -2.369000000     1.487000000
C     3.167000000    -2.523000000     2.774000000
C     2.686000000    -2.248000000     4.020000000
H     1.648000000    -2.536000000     4.165000000
C     2.243000000    -3.138000000     1.736000000
O     2.967000000    -3.822000000     0.695000000
H     1.672000000    -2.358000000     1.211000000
O     1.253000000    -3.996000000     2.356000000
C    -0.060000000    -4.036000000     1.952000000
C    -0.947000000    -3.373000000     2.687000000
H    -0.678000000    -2.731000000     3.522000000
C    -2.321000000    -3.400000000     2.368000000
O    -3.146000000    -2.482000000     3.021000000
C    -2.683000000    -3.985000000     1.145000000
C    -4.135000000    -3.701000000     0.704000000
H    -4.315000000    -4.541000000     0.031000000
C    -4.313000000    -2.461000000    -0.140000000
C    -4.016000000    -2.574000000    -1.499000000
H    -3.659000000    -3.495000000    -1.952000000
H    -4.829000000    -3.848000000     1.534000000
C    -1.805000000    -4.621000000     0.316000000
H    -2.183000000    -5.163000000    -0.547000000
C    -0.476000000    -4.689000000     0.779000000
C     0.556000000    -5.383000000    -0.029000000
H     0.123000000    -6.216000000    -0.588000000
H     1.201000000    -5.972000000     0.627000000
C     1.309000000    -4.498000000    -0.981000000
C     0.765000000    -4.140000000    -2.222000000
H    -0.119000000    -4.626000000    -2.629000000
C     2.425000000    -3.798000000    -0.542000000
C     3.087000000    -2.963000000    -1.467000000
H     3.974000000    -2.388000000    -1.211000000
C     2.642000000    -2.810000000    -2.742000000
O     3.234000000    -1.676000000    -3.409000000
C     2.395000000    -0.510000000    -3.455000000
C     3.232000000     0.773000000    -3.087000000
C     3.058000000     1.993000000    -3.761000000
H     2.378000000     2.033000000    -4.608000000
C     4.221000000     0.717000000    -2.033000000
H     4.480000000    -0.211000000    -1.531000000
O     1.798000000    -0.436000000    -4.742000000
H     1.643000000    -0.416000000    -2.657000000
C     1.466000000    -3.379000000    -3.171000000
C     0.975000000    -3.227000000    -4.591000000
H     0.506000000    -4.078000000    -5.089000000
H     1.775000000    -2.998000000    -5.298000000
C     0.016000000    -1.998000000    -4.620000000
C    -1.275000000    -2.323000000    -4.396000000
H    -1.487000000    -3.376000000    -4.229000000
C     0.437000000    -0.676000000    -4.700000000
C    -0.494000000     0.403000000    -4.666000000
H    -0.117000000     1.412000000    -4.817000000
C    -1.781000000     0.083000000    -4.329000000
O    -2.636000000     1.089000000    -4.001000000
C    -2.907000000     1.492000000    -2.661000000
C    -2.754000000     3.001000000    -2.349000000
C    -1.888000000     3.836000000    -3.085000000
H    -1.324000000     3.467000000    -3.938000000
C    -3.360000000     3.575000000    -1.245000000
H    -3.952000000     3.064000000    -0.489000000
O    -4.184000000     1.017000000    -2.359000000
H    -2.088000000     0.991000000    -2.124000000
C    -2.209000000    -1.274000000    -4.119000000
C    -3.669000000    -1.567000000    -3.769000000
H    -3.939000000    -2.544000000    -4.175000000
H    -4.399000000    -0.914000000    -4.251000000
C    -3.974000000    -1.389000000    -2.245000000
C    -4.198000000    -0.156000000    -1.628000000
C    -4.453000000    -0.032000000    -0.287000000
H    -4.401000000     0.973000000     0.122000000
C    -4.486000000    -1.180000000     0.472000000
O    -4.478000000    -1.118000000     1.871000000
C    -3.202000000    -1.136000000     2.461000000
H    -2.394000000    -0.967000000     1.734000000
C    -3.115000000    -0.009000000     3.504000000
C    -2.423000000    -0.341000000     4.666000000
H    -1.849000000    -1.263000000     4.625000000
C    -3.779000000     1.234000000     3.343000000
H    -4.301000000     1.510000000     2.431000000
C    -3.662000000     2.167000000     4.406000000
O    -4.221000000     3.412000000     4.337000000
C    -2.939000000     1.816000000     5.570000000
H    -2.807000000     2.548000000     6.362000000
C    -2.273000000     0.578000000     5.663000000
O    -1.357000000     0.461000000     6.668000000
C    -0.448000000    -0.617000000     6.764000000
C     0.920000000    -0.353000000     6.622000000
H     1.300000000     0.652000000     6.461000000
C    -0.949000000    -1.894000000     6.962000000
H    -2.033000000    -1.886000000     7.049000000
C    -0.148000000    -2.995000000     6.887000000
H    -0.514000000    -4.018000000     6.920000000
C     1.241000000    -2.751000000     6.747000000
H     1.870000000    -3.636000000     6.706000000
C     1.718000000    -1.477000000     6.598000000
O     3.065000000    -1.307000000     6.274000000
C     3.480000000    -1.612000000     4.975000000
C     4.766000000    -1.190000000     4.685000000
H     5.414000000    -0.780000000     5.456000000
C     5.278000000    -1.571000000     3.396000000
O     6.530000000    -1.174000000     2.979000000
C     6.790000000    -0.683000000     1.721000000
C     6.154000000     0.437000000     1.249000000
H     5.419000000     0.962000000     1.854000000
C     7.774000000    -1.358000000     0.976000000
H     8.256000000    -2.205000000     1.457000000
C     7.934000000    -1.000000000    -0.353000000
H     8.737000000    -1.422000000    -0.952000000
C     7.218000000     0.099000000    -0.869000000
H     7.459000000     0.465000000    -1.864000000
C     6.318000000     0.863000000    -0.017000000
O     5.681000000     1.907000000    -0.559000000
C     4.922000000     1.844000000    -1.705000000
C     4.686000000     3.070000000    -2.297000000
H     5.274000000     3.920000000    -1.959000000
C     3.781000000     3.121000000    -3.387000000
O     3.776000000     4.278000000    -4.095000000
C     2.560000000     4.747000000    -4.578000000
C     1.428000000     4.964000000    -3.743000000
H     1.441000000     4.812000000    -2.667000000
C     2.478000000     4.952000000    -5.964000000
H     3.335000000     4.653000000    -6.562000000
C     1.340000000     5.389000000    -6.534000000
H     1.312000000     5.469000000    -7.618000000
C     0.274000000     5.716000000    -5.661000000
H    -0.583000000     6.223000000    -6.097000000
C     0.324000000     5.513000000    -4.308000000
O    -0.772000000     5.907000000    -3.544000000
C    -1.546000000     5.117000000    -2.768000000
C    -2.316000000     5.724000000    -1.739000000
H    -2.095000000     6.728000000    -1.388000000
C    -3.245000000     4.943000000    -1.009000000
O    -3.736000000     5.595000000     0.123000000
C    -4.556000000     5.020000000     1.077000000
C    -5.931000000     5.013000000     0.864000000
H    -6.408000000     5.425000000    -0.022000000
C    -6.735000000     4.437000000     1.846000000
H    -7.817000000     4.473000000     1.750000000
C    -6.145000000     3.837000000     2.958000000
H    -6.765000000     3.348000000     3.704000000
C    -4.778000000     3.853000000     3.205000000
C    -3.959000000     4.453000000     2.236000000
H    -2.887000000     4.586000000     2.354000000
C     1.420000000     0.946000000     2.600000000
H     1.560000000     0.941000000     3.678000000
C     0.604000000    -0.008000000     2.002000000
H     0.190000000    -0.778000000     2.648000000
C     0.476000000    -0.014000000     0.650000000
C    -0.592000000    -0.915000000    -0.003000000
H    -1.443000000    -0.247000000    -0.155000000
H    -0.109000000    -1.326000000    -0.892000000
H    -0.779000000    -1.741000000     0.686000000
C     1.178000000     0.913000000    -0.139000000
H     0.967000000     0.847000000    -1.204000000
C     2.010000000     1.936000000     0.434000000
H     2.507000000     2.698000000    -0.160000000
C     2.152000000     1.910000000     1.857000000
C     3.027000000     2.952000000     2.493000000
O     3.613000000     3.805000000     1.795000000
O     3.177000000     3.004000000     3.686000000
O     3.453000000     6.096000000     2.859000000
H     3.590000000     5.220000000     2.498000000
H     3.548000000     5.983000000     3.805000000
O     2.931000000     4.869000000     5.572000000
H     3.154000000     4.262000000     4.866000000
H     2.081000000     5.229000000     5.320000000
O     7.870000000     1.040000000     4.674000000
H     7.617000000     0.118000000     4.698000000
H     7.069000000     1.503000000     4.430000000
O     2.718000000     5.566000000    -0.197000000
H     3.242000000     4.939000000     0.300000000
H     1.812000000     5.300000000    -0.040000000
O     0.790000000     7.860000000    -1.632000000
H     0.353000000     7.282000000    -2.258000000
H     1.411000000     7.292000000    -1.176000000
O     6.432000000     4.360000000     1.492000000
H     5.487000000     4.238000000     1.406000000
H     6.526000000     5.218000000     1.906000000
O     5.117000000     2.131000000     6.272000000
H     4.337000000     1.853000000     5.793000000
H     5.526000000     2.785000000     5.706000000
O     8.525000000     3.263000000    -0.106000000
H     8.178000000     3.757000000     0.637000000
H     9.160000000     2.660000000     0.282000000
O     4.027000000     7.571000000    -1.439000000
H     4.022000000     8.119000000    -0.654000000
H     3.494000000     6.811000000    -1.204000000
O     6.903000000     5.724000000     4.847000000
H     7.436000000     5.000000000     5.177000000
H     6.729000000     6.263000000     5.619000000
O     2.099000000     8.551000000     2.194000000
H     2.403000000     7.651000000     2.309000000
H     2.683000000     8.919000000     1.532000000
O    -1.373000000     2.320000000     1.133000000
H    -0.755000000     1.644000000     0.854000000
H    -0.867000000     2.878000000     1.724000000
O     2.910000000     7.247000000     7.045000000
H     1.957000000     7.334000000     7.067000000
H     3.067000000     6.472000000     6.507000000
O     5.887000000     2.541000000     3.734000000
H     6.213000000     2.954000000     2.935000000
H     4.934000000     2.585000000     3.655000000
O     0.047000000     4.770000000    -0.233000000
H    -0.493000000     5.026000000     0.515000000
H    -0.187000000     3.856000000    -0.395000000
O     6.314000000     6.808000000     2.523000000
H     6.461000000     6.504000000     3.418000000
H     5.415000000     7.138000000     2.527000000
O     0.358000000     5.824000000     5.158000000
H     0.302000000     6.061000000     6.084000000
H    -0.201000000     6.461000000     4.714000000
O     2.486000000     3.169000000     7.510000000
H     1.529000000     3.144000000     7.510000000
H     2.710000000     3.743000000     6.778000000
O     0.187000000     3.623000000     3.497000000
H     1.047000000     3.206000000     3.555000000
H     0.220000000     4.330000000     4.142000000
