218
-1446.92341
C     3.415000000    -2.908000000     1.628000000
H     3.581000000    -2.595000000     0.600000000
C     2.260000000    -3.649000000     1.903000000
C     1.956000000    -3.958000000     3.279000000
H     1.124000000    -4.597000000     3.564000000
C     1.219000000    -4.012000000     0.818000000
O     1.986000000    -4.613000000    -0.308000000
H     0.709000000    -3.079000000     0.537000000
O     0.267000000    -4.881000000     1.310000000
C    -0.993000000    -4.460000000     0.939000000
C    -1.760000000    -3.719000000     1.786000000
H    -1.327000000    -3.490000000     2.756000000
C    -2.950000000    -3.114000000     1.370000000
O    -3.730000000    -2.395000000     2.215000000
C    -3.491000000    -3.471000000     0.130000000
C    -4.798000000    -2.908000000    -0.464000000
H    -5.118000000    -3.637000000    -1.211000000
C    -4.627000000    -1.460000000    -0.905000000
C    -4.418000000    -1.220000000    -2.250000000
H    -4.122000000    -2.000000000    -2.946000000
H    -5.493000000    -2.854000000     0.377000000
C    -2.696000000    -4.129000000    -0.731000000
H    -3.138000000    -4.311000000    -1.707000000
C    -1.436000000    -4.663000000    -0.345000000
C    -0.625000000    -5.398000000    -1.426000000
H    -1.377000000    -5.688000000    -2.162000000
H    -0.146000000    -6.245000000    -0.929000000
C     0.340000000    -4.502000000    -2.052000000
C    -0.077000000    -3.697000000    -3.136000000
H    -1.063000000    -3.760000000    -3.588000000
C     1.615000000    -4.176000000    -1.574000000
C     2.471000000    -3.283000000    -2.177000000
H     3.426000000    -3.082000000    -1.699000000
C     2.101000000    -2.618000000    -3.295000000
O     2.974000000    -1.631000000    -3.678000000
C     2.497000000    -0.204000000    -3.585000000
C     3.661000000     0.707000000    -3.309000000
C     3.624000000     2.136000000    -3.434000000
H     2.719000000     2.542000000    -3.879000000
C     4.821000000     0.113000000    -2.796000000
H     4.950000000    -0.950000000    -2.612000000
O     1.790000000     0.227000000    -4.782000000
H     1.769000000    -0.259000000    -2.762000000
C     0.824000000    -2.837000000    -3.793000000
C     0.464000000    -2.180000000    -5.140000000
H    -0.291000000    -2.800000000    -5.629000000
H     1.305000000    -2.127000000    -5.835000000
C    -0.272000000    -0.856000000    -4.945000000
C    -1.676000000    -0.774000000    -4.798000000
H    -2.309000000    -1.646000000    -4.945000000
C     0.479000000     0.290000000    -4.760000000
C    -0.098000000     1.493000000    -4.417000000
H     0.558000000     2.314000000    -4.139000000
C    -1.515000000     1.465000000    -4.087000000
O    -1.855000000     2.647000000    -3.458000000
C    -2.357000000     2.580000000    -2.130000000
C    -1.904000000     3.842000000    -1.331000000
C    -0.649000000     4.458000000    -1.505000000
H    -0.020000000     4.057000000    -2.296000000
C    -2.794000000     4.378000000    -0.389000000
H    -3.701000000     3.828000000    -0.152000000
O    -3.759000000     2.380000000    -2.110000000
H    -1.886000000     1.725000000    -1.623000000
C    -2.335000000     0.353000000    -4.304000000
C    -3.832000000     0.325000000    -4.144000000
H    -4.381000000    -0.476000000    -4.644000000
H    -4.223000000     1.253000000    -4.568000000
C    -4.241000000     0.126000000    -2.699000000
C    -4.206000000     1.156000000    -1.817000000
C    -4.506000000     0.909000000    -0.455000000
H    -4.438000000     1.744000000     0.238000000
C    -4.726000000    -0.358000000     0.040000000
O    -4.709000000    -0.471000000     1.377000000
C    -3.573000000    -1.026000000     2.051000000
H    -2.661000000    -0.863000000     1.457000000
C    -3.220000000    -0.355000000     3.351000000
C    -2.530000000    -0.992000000     4.373000000
H    -2.128000000    -1.993000000     4.244000000
C    -3.549000000     1.002000000     3.535000000
H    -4.112000000     1.502000000     2.751000000
C    -3.116000000     1.715000000     4.593000000
O    -3.363000000     3.051000000     4.813000000
C    -2.418000000     1.029000000     5.594000000
H    -2.046000000     1.641000000     6.412000000
C    -2.096000000    -0.329000000     5.508000000
O    -1.248000000    -0.901000000     6.485000000
C    -0.616000000    -2.134000000     6.487000000
C     0.757000000    -2.253000000     6.257000000
H     1.375000000    -1.363000000     6.166000000
C    -1.470000000    -3.188000000     6.581000000
H    -2.528000000    -3.024000000     6.769000000
C    -1.003000000    -4.486000000     6.280000000
H    -1.594000000    -5.399000000     6.290000000
C     0.367000000    -4.632000000     6.000000000
H     0.691000000    -5.628000000     5.709000000
C     1.274000000    -3.550000000     6.063000000
O     2.525000000    -3.754000000     5.549000000
C     2.843000000    -3.514000000     4.272000000
C     4.007000000    -2.852000000     3.947000000
H     4.629000000    -2.521000000     4.775000000
C     4.290000000    -2.489000000     2.606000000
O     5.340000000    -1.724000000     2.284000000
C     6.110000000    -1.865000000     1.197000000
C     5.892000000    -0.893000000     0.209000000
H     5.114000000    -0.160000000     0.407000000
C     7.256000000    -2.674000000     1.169000000
H     7.375000000    -3.387000000     1.981000000
C     8.245000000    -2.469000000     0.214000000
H     9.155000000    -3.063000000     0.205000000
C     8.014000000    -1.513000000    -0.826000000
H     8.760000000    -1.258000000    -1.575000000
C     6.880000000    -0.749000000    -0.778000000
O     6.864000000     0.368000000    -1.593000000
C     5.811000000     0.938000000    -2.260000000
C     5.789000000     2.332000000    -2.441000000
H     6.662000000     2.869000000    -2.078000000
C     4.707000000     2.929000000    -3.010000000
O     4.745000000     4.332000000    -3.160000000
C     3.629000000     5.107000000    -3.128000000
C     2.804000000     5.220000000    -2.014000000
H     2.933000000     4.481000000    -1.228000000
C     3.490000000     6.061000000    -4.189000000
H     4.292000000     6.092000000    -4.922000000
C     2.492000000     6.999000000    -4.166000000
H     2.315000000     7.800000000    -4.880000000
C     1.549000000     6.960000000    -3.098000000
H     0.721000000     7.660000000    -3.019000000
C     1.694000000     6.096000000    -2.033000000
O     0.884000000     6.324000000    -0.984000000
C    -0.309000000     5.640000000    -0.902000000
C    -1.320000000     6.188000000     0.004000000
H    -1.196000000     7.170000000     0.454000000
C    -2.558000000     5.623000000     0.188000000
O    -3.454000000     6.139000000     1.153000000
C    -4.052000000     5.408000000     2.147000000
C    -5.341000000     5.789000000     2.504000000
H    -5.790000000     6.632000000     1.985000000
C    -5.965000000     5.161000000     3.598000000
H    -6.970000000     5.387000000     3.946000000
C    -5.298000000     4.205000000     4.320000000
H    -5.820000000     3.640000000     5.087000000
C    -3.987000000     3.966000000     4.017000000
C    -3.371000000     4.450000000     2.880000000
H    -2.415000000     4.138000000     2.468000000
C     1.543000000    -0.054000000     2.104000000
H     1.640000000    -0.510000000     3.086000000
C     0.507000000    -0.469000000     1.300000000
H    -0.161000000    -1.290000000     1.548000000
C     0.341000000    -0.011000000    -0.029000000
C    -0.678000000    -0.594000000    -0.922000000
H    -0.553000000    -1.667000000    -0.761000000
H    -1.750000000    -0.451000000    -0.765000000
H    -0.390000000    -0.424000000    -1.961000000
C     1.189000000     1.041000000    -0.507000000
H     0.957000000     1.448000000    -1.488000000
C     2.180000000     1.412000000     0.312000000
H     2.953000000     2.091000000    -0.039000000
C     2.365000000     0.940000000     1.615000000
C     3.485000000     1.322000000     2.537000000
O     4.321000000     2.088000000     2.093000000
O     3.385000000     1.159000000     3.710000000
O     8.026000000     1.598000000     1.855000000
H     7.472000000     1.608000000     1.074000000
H     7.424000000     1.406000000     2.574000000
O     1.594000000     2.166000000     5.479000000
H     2.092000000     1.666000000     4.833000000
H     2.097000000     2.079000000     6.289000000
O     2.982000000     4.569000000     1.423000000
H     3.215000000     3.832000000     1.987000000
H     2.029000000     4.528000000     1.355000000
O     9.018000000     4.001000000     0.098000000
H     8.355000000     3.482000000     0.553000000
H     9.761000000     4.022000000     0.700000000
O     6.967000000     6.119000000     2.132000000
H     7.331000000     5.271000000     2.386000000
H     7.728000000     6.697000000     2.071000000
O     6.410000000     5.240000000     5.640000000
H     7.299000000     5.253000000     5.285000000
H     5.931000000     4.645000000     5.063000000
O     9.644000000    -0.897000000     2.420000000
H     9.090000000    -0.125000000     2.304000000
H     9.350000000    -1.506000000     1.742000000
O     6.321000000    -1.912000000     7.217000000
H     5.654000000    -1.344000000     6.831000000
H     5.861000000    -2.387000000     7.908000000
O     6.216000000     3.438000000     0.676000000
H     5.748000000     4.133000000     0.214000000
H     5.547000000     3.017000000     1.216000000
O     4.852000000     3.528000000     4.608000000
H     4.974000000     3.181000000     3.724000000
H     4.590000000     2.769000000     5.129000000
O     0.902000000     3.406000000     2.873000000
H     1.231000000     3.120000000     3.725000000
H     0.631000000     2.598000000     2.437000000
O     6.553000000     0.944000000     3.960000000
H     6.610000000     0.094000000     4.398000000
H     5.625000000     1.042000000     3.747000000
O     3.477000000     2.397000000     7.597000000
H     3.405000000     1.776000000     8.322000000
H     4.103000000     3.052000000     7.904000000
O    -0.554000000     4.695000000     6.405000000
H    -0.095000000     5.535000000     6.363000000
H    -0.293000000     4.240000000     5.604000000
O     9.715000000     2.712000000     3.960000000
H     9.039000000     2.587000000     3.294000000
H     9.394000000     2.227000000     4.721000000
O     4.982000000     6.070000000     0.210000000
H     4.332000000     5.480000000     0.589000000
H     5.619000000     6.208000000     0.911000000
O     2.949000000     5.418000000     4.498000000
H     3.533000000     4.661000000     4.455000000
H     2.923000000     5.752000000     3.601000000
O     4.455000000     0.067000000     5.813000000
H     4.057000000     0.202000000     4.954000000
H     3.845000000     0.475000000     6.427000000
O    -0.055000000     5.894000000     3.062000000
H     0.164000000     5.003000000     2.791000000
H     0.768000000     6.377000000     2.985000000
