218
-1459.16663
C     3.761000000    -3.379000000     1.254000000
H     4.017000000    -3.413000000     0.198000000
C     2.402000000    -3.526000000     1.712000000
C     2.159000000    -3.446000000     3.077000000
H     1.156000000    -3.626000000     3.457000000
C     1.304000000    -3.934000000     0.726000000
O     1.759000000    -4.594000000    -0.403000000
H     0.759000000    -3.021000000     0.444000000
O     0.321000000    -4.806000000     1.251000000
C    -0.993000000    -4.360000000     1.228000000
C    -1.482000000    -3.644000000     2.311000000
H    -0.970000000    -3.381000000     3.232000000
C    -2.734000000    -3.041000000     2.115000000
O    -3.214000000    -2.268000000     3.126000000
C    -3.521000000    -3.220000000     0.962000000
C    -4.876000000    -2.569000000     0.686000000
H    -5.364000000    -3.087000000    -0.142000000
C    -4.675000000    -1.183000000     0.178000000
C    -4.738000000    -0.961000000    -1.195000000
H    -4.699000000    -1.802000000    -1.884000000
H    -5.489000000    -2.526000000     1.589000000
C    -3.021000000    -4.070000000    -0.017000000
H    -3.592000000    -4.154000000    -0.939000000
C    -1.655000000    -4.536000000     0.017000000
C    -1.007000000    -5.299000000    -1.112000000
H    -1.773000000    -5.812000000    -1.697000000
H    -0.436000000    -6.118000000    -0.668000000
C    -0.166000000    -4.420000000    -1.892000000
C    -0.761000000    -3.809000000    -2.930000000
H    -1.731000000    -4.119000000    -3.311000000
C     1.160000000    -4.195000000    -1.547000000
C     1.927000000    -3.399000000    -2.333000000
H     2.991000000    -3.318000000    -2.130000000
C     1.376000000    -2.729000000    -3.417000000
O     2.141000000    -1.746000000    -4.083000000
C     1.753000000    -0.340000000    -3.968000000
C     2.957000000     0.579000000    -3.661000000
C     3.188000000     1.738000000    -4.309000000
H     2.316000000     2.023000000    -4.891000000
C     3.815000000     0.275000000    -2.602000000
H     3.520000000    -0.566000000    -1.979000000
O     0.886000000     0.056000000    -5.013000000
H     1.111000000    -0.209000000    -3.085000000
C     0.038000000    -2.998000000    -3.742000000
C    -0.624000000    -2.354000000    -4.929000000
H    -1.348000000    -3.074000000    -5.315000000
H     0.230000000    -2.225000000    -5.598000000
C    -1.243000000    -0.944000000    -4.612000000
C    -2.606000000    -0.820000000    -4.289000000
H    -3.191000000    -1.736000000    -4.307000000
C    -0.485000000     0.212000000    -4.712000000
C    -0.940000000     1.414000000    -4.197000000
H    -0.225000000     2.227000000    -4.106000000
C    -2.234000000     1.471000000    -3.717000000
O    -2.661000000     2.674000000    -3.196000000
C    -2.703000000     2.845000000    -1.726000000
C    -1.977000000     4.176000000    -1.370000000
C    -0.920000000     4.728000000    -2.079000000
H    -0.633000000     4.195000000    -2.982000000
C    -2.347000000     4.871000000    -0.207000000
H    -3.148000000     4.524000000     0.441000000
O    -4.071000000     2.636000000    -1.337000000
H    -2.041000000     2.122000000    -1.226000000
C    -3.136000000     0.382000000    -3.802000000
C    -4.549000000     0.488000000    -3.232000000
H    -5.183000000    -0.234000000    -3.751000000
H    -4.957000000     1.483000000    -3.421000000
C    -4.632000000     0.286000000    -1.692000000
C    -4.359000000     1.395000000    -0.872000000
C    -4.284000000     1.203000000     0.480000000
H    -4.057000000     2.056000000     1.115000000
C    -4.364000000    -0.111000000     0.994000000
O    -4.289000000    -0.265000000     2.381000000
C    -3.028000000    -0.845000000     2.807000000
H    -2.295000000    -0.619000000     2.019000000
C    -2.492000000    -0.124000000     3.982000000
C    -2.009000000    -0.848000000     5.085000000
H    -2.214000000    -1.912000000     5.170000000
C    -2.182000000     1.235000000     3.994000000
H    -2.576000000     1.752000000     3.123000000
C    -1.528000000     1.915000000     4.991000000
O    -1.447000000     3.316000000     5.040000000
C    -1.230000000     1.198000000     6.107000000
H    -0.926000000     1.780000000     6.973000000
C    -1.424000000    -0.179000000     6.147000000
O    -0.888000000    -0.873000000     7.241000000
C    -0.059000000    -1.973000000     7.070000000
C     1.017000000    -1.931000000     6.169000000
H     1.385000000    -0.979000000     5.795000000
C    -0.588000000    -3.215000000     7.408000000
H    -1.470000000    -3.204000000     8.042000000
C    -0.036000000    -4.411000000     6.987000000
H    -0.337000000    -5.390000000     7.352000000
C     1.150000000    -4.334000000     6.258000000
H     1.661000000    -5.258000000     5.999000000
C     1.712000000    -3.097000000     5.914000000
O     2.961000000    -3.104000000     5.310000000
C     3.172000000    -3.178000000     4.002000000
C     4.485000000    -2.950000000     3.535000000
H     5.309000000    -2.739000000     4.212000000
C     4.699000000    -2.996000000     2.131000000
O     5.986000000    -2.829000000     1.722000000
C     6.323000000    -2.345000000     0.437000000
C     5.931000000    -1.032000000     0.169000000
H     5.237000000    -0.599000000     0.885000000
C     7.031000000    -3.038000000    -0.518000000
H     7.172000000    -4.086000000    -0.267000000
C     7.430000000    -2.443000000    -1.707000000
H     7.967000000    -2.986000000    -2.480000000
C     7.064000000    -1.133000000    -1.977000000
H     7.310000000    -0.657000000    -2.923000000
C     6.217000000    -0.511000000    -1.055000000
O     5.795000000     0.793000000    -1.341000000
C     4.913000000     1.131000000    -2.268000000
C     5.076000000     2.296000000    -2.904000000
H     5.835000000     2.959000000    -2.498000000
C     4.218000000     2.623000000    -3.935000000
O     4.293000000     3.848000000    -4.575000000
C     3.201000000     4.651000000    -4.640000000
C     2.705000000     5.150000000    -3.454000000
H     3.341000000     5.050000000    -2.579000000
C     2.450000000     4.718000000    -5.797000000
H     2.881000000     4.387000000    -6.738000000
C     1.190000000     5.349000000    -5.780000000
H     0.639000000     5.596000000    -6.684000000
C     0.705000000     5.804000000    -4.597000000
H    -0.202000000     6.392000000    -4.483000000
C     1.424000000     5.699000000    -3.383000000
O     0.988000000     6.147000000    -2.176000000
C    -0.230000000     5.800000000    -1.652000000
C    -0.604000000     6.499000000    -0.511000000
H     0.040000000     7.298000000    -0.151000000
C    -1.618000000     5.968000000     0.214000000
O    -1.779000000     6.483000000     1.468000000
C    -2.387000000     5.735000000     2.452000000
C    -3.771000000     5.792000000     2.568000000
H    -4.384000000     6.376000000     1.886000000
C    -4.386000000     4.943000000     3.439000000
H    -5.470000000     5.012000000     3.487000000
C    -3.674000000     4.089000000     4.298000000
H    -4.128000000     3.372000000     4.978000000
C    -2.266000000     4.144000000     4.286000000
C    -1.653000000     4.968000000     3.357000000
H    -0.577000000     4.932000000     3.203000000
C     1.267000000     0.483000000     1.959000000
H     1.549000000     0.273000000     2.988000000
C     0.288000000    -0.245000000     1.296000000
H    -0.220000000    -1.092000000     1.750000000
C    -0.010000000     0.056000000    -0.022000000
C    -1.019000000    -0.774000000    -0.757000000
H    -1.347000000    -1.727000000    -0.336000000
H    -1.901000000    -0.140000000    -0.864000000
H    -0.652000000    -0.928000000    -1.774000000
C     0.588000000     1.172000000    -0.612000000
H     0.403000000     1.392000000    -1.660000000
C     1.660000000     1.812000000    -0.037000000
H     2.285000000     2.566000000    -0.509000000
C     2.007000000     1.416000000     1.272000000
C     3.199000000     2.065000000     2.008000000
O     3.735000000     3.018000000     1.403000000
O     3.337000000     2.002000000     3.214000000
O     6.015000000     3.271000000     0.429000000
H     6.202000000     2.339000000     0.318000000
H     5.102000000     3.301000000     0.715000000
O     2.597000000     2.000000000     5.744000000
H     1.933000000     2.667000000     5.568000000
H     2.911000000     1.741000000     4.877000000
O     1.289000000     4.517000000     1.382000000
H     1.063000000     4.520000000     0.452000000
H     2.040000000     3.926000000     1.444000000
O     8.600000000     2.306000000     1.135000000
H     8.228000000     2.985000000     0.572000000
H     8.546000000     2.670000000     2.018000000
O     9.305000000    -0.543000000     1.696000000
H     8.968000000     0.351000000     1.641000000
H     8.869000000    -0.916000000     2.462000000
O     4.580000000     7.150000000     6.345000000
H     4.561000000     6.214000000     6.146000000
H     4.441000000     7.577000000     5.499000000
O     6.554000000     5.970000000    -0.750000000
H     7.430000000     5.608000000    -0.615000000
H     6.446000000     5.987000000    -1.701000000
O     6.919000000     2.850000000     3.964000000
H     6.864000000     3.230000000     4.841000000
H     6.494000000     1.997000000     4.045000000
O     1.315000000     5.434000000     5.846000000
H     0.556000000     5.908000000     6.189000000
H     1.455000000     5.804000000     4.975000000
O     9.447000000     1.248000000     4.484000000
H     9.104000000     0.355000000     4.475000000
H     8.681000000     1.797000000     4.651000000
O     3.984000000    -0.056000000     6.859000000
H     3.352000000     0.590000000     6.545000000
H     3.485000000    -0.606000000     7.463000000
O     7.697000000    -1.021000000     3.917000000
H     6.846000000    -0.617000000     3.745000000
H     7.629000000    -1.347000000     4.815000000
O     4.615000000     7.261000000     3.432000000
H     4.963000000     6.547000000     2.899000000
H     3.664000000     7.164000000     3.373000000
O     6.481000000     5.212000000     2.405000000
H     6.398000000     4.838000000     1.528000000
H     6.517000000     4.452000000     2.987000000
O     2.753000000     7.993000000    -0.193000000
H     2.161000000     7.861000000    -0.933000000
H     3.022000000     7.110000000     0.060000000
O     5.413000000     0.649000000     4.394000000
H     4.619000000     0.986000000     3.980000000
H     5.124000000     0.342000000     5.253000000
O     1.973000000     6.690000000     3.414000000
H     1.370000000     7.413000000     3.587000000
H     1.628000000     6.273000000     2.625000000
O     4.175000000     4.579000000     5.265000000
H     3.257000000     4.710000000     5.504000000
H     4.145000000     3.970000000     4.527000000
O     3.971000000     5.510000000     0.402000000
H     3.652000000     4.725000000     0.847000000
H     4.882000000     5.309000000     0.185000000
