218
-1418.71012
C     3.315000000    -3.799000000    -0.443000000
H     3.228000000    -3.538000000    -1.495000000
C     2.120000000    -4.103000000     0.218000000
C     2.240000000    -4.310000000     1.633000000
H     1.403000000    -4.610000000     2.258000000
C     0.820000000    -4.057000000    -0.510000000
O     1.000000000    -4.337000000    -1.867000000
H     0.391000000    -3.045000000    -0.473000000
O    -0.080000000    -4.941000000     0.134000000
C    -1.331000000    -4.450000000     0.372000000
C    -1.594000000    -3.931000000     1.623000000
H    -0.889000000    -4.083000000     2.437000000
C    -2.706000000    -3.157000000     1.843000000
O    -2.746000000    -2.597000000     3.104000000
C    -3.688000000    -3.002000000     0.796000000
C    -4.897000000    -2.209000000     1.119000000
H    -5.777000000    -2.420000000     0.507000000
C    -4.671000000    -0.679000000     0.954000000
C    -4.979000000    -0.140000000    -0.310000000
H    -5.301000000    -0.812000000    -1.101000000
H    -5.151000000    -2.385000000     2.167000000
C    -3.441000000    -3.624000000    -0.437000000
H    -4.133000000    -3.455000000    -1.257000000
C    -2.226000000    -4.278000000    -0.680000000
C    -1.929000000    -4.757000000    -2.099000000
H    -2.881000000    -4.968000000    -2.591000000
H    -1.409000000    -5.714000000    -2.030000000
C    -1.112000000    -3.799000000    -2.956000000
C    -1.749000000    -2.893000000    -3.860000000
H    -2.811000000    -2.929000000    -4.089000000
C     0.294000000    -3.613000000    -2.770000000
C     0.988000000    -2.746000000    -3.543000000
H     2.074000000    -2.701000000    -3.509000000
C     0.377000000    -1.837000000    -4.348000000
O     1.079000000    -0.810000000    -4.978000000
C     0.962000000     0.498000000    -4.415000000
C     2.337000000     1.193000000    -4.258000000
C     2.515000000     2.519000000    -4.515000000
H     1.736000000     3.121000000    -4.975000000
C     3.462000000     0.383000000    -3.848000000
H     3.390000000    -0.695000000    -3.732000000
O     0.038000000     1.412000000    -4.924000000
H     0.643000000     0.364000000    -3.371000000
C    -1.006000000    -1.899000000    -4.556000000
C    -1.821000000    -0.821000000    -5.308000000
H    -2.810000000    -1.172000000    -5.609000000
H    -1.322000000    -0.606000000    -6.256000000
C    -2.089000000     0.422000000    -4.448000000
C    -3.261000000     0.512000000    -3.717000000
H    -3.954000000    -0.318000000    -3.830000000
C    -1.182000000     1.479000000    -4.271000000
C    -1.519000000     2.705000000    -3.596000000
H    -0.864000000     3.571000000    -3.648000000
C    -2.679000000     2.700000000    -2.835000000
O    -2.833000000     3.712000000    -1.910000000
C    -2.519000000     3.299000000    -0.542000000
C    -1.535000000     4.215000000     0.188000000
C    -0.580000000     4.945000000    -0.508000000
H    -0.535000000     4.933000000    -1.594000000
C    -1.476000000     4.260000000     1.625000000
H    -2.180000000     3.655000000     2.191000000
O    -3.750000000     3.263000000     0.139000000
H    -2.294000000     2.224000000    -0.608000000
C    -3.564000000     1.582000000    -2.864000000
C    -4.863000000     1.751000000    -1.999000000
H    -5.674000000     1.189000000    -2.466000000
H    -5.196000000     2.788000000    -1.905000000
C    -4.677000000     1.212000000    -0.554000000
C    -4.297000000     2.077000000     0.405000000
C    -4.113000000     1.533000000     1.696000000
H    -3.770000000     2.164000000     2.511000000
C    -4.202000000     0.125000000     1.917000000
O    -3.757000000    -0.461000000     3.129000000
C    -2.552000000    -1.175000000     3.198000000
H    -1.793000000    -0.811000000     2.490000000
C    -1.889000000    -0.895000000     4.516000000
C    -0.782000000    -1.681000000     4.932000000
H    -0.611000000    -2.575000000     4.338000000
C    -2.211000000     0.255000000     5.313000000
H    -3.032000000     0.888000000     4.985000000
C    -1.550000000     0.594000000     6.426000000
O    -1.762000000     1.839000000     7.000000000
C    -0.486000000    -0.222000000     6.809000000
H    -0.024000000     0.019000000     7.763000000
C    -0.088000000    -1.363000000     6.084000000
O     0.983000000    -2.052000000     6.548000000
C     1.288000000    -3.278000000     6.163000000
C     2.333000000    -3.402000000     5.286000000
H     2.741000000    -2.427000000     5.032000000
C     0.611000000    -4.426000000     6.505000000
H    -0.096000000    -4.331000000     7.325000000
C     1.056000000    -5.680000000     6.102000000
H     0.683000000    -6.632000000     6.472000000
C     1.991000000    -5.749000000     5.026000000
H     2.212000000    -6.623000000     4.420000000
C     2.659000000    -4.594000000     4.636000000
O     3.624000000    -4.681000000     3.668000000
C     3.494000000    -4.341000000     2.303000000
C     4.624000000    -4.169000000     1.555000000
H     5.574000000    -4.277000000     2.072000000
C     4.563000000    -3.786000000     0.241000000
O     5.731000000    -3.492000000    -0.387000000
C     5.906000000    -2.991000000    -1.676000000
C     5.587000000    -1.681000000    -1.941000000
H     5.360000000    -1.048000000    -1.087000000
C     6.287000000    -3.746000000    -2.836000000
H     6.466000000    -4.814000000    -2.736000000
C     6.437000000    -3.122000000    -4.093000000
H     6.810000000    -3.573000000    -5.009000000
C     6.309000000    -1.742000000    -4.274000000
H     6.543000000    -1.218000000    -5.197000000
C     5.865000000    -1.013000000    -3.133000000
O     5.709000000     0.279000000    -3.161000000
C     4.633000000     1.051000000    -3.657000000
C     4.836000000     2.347000000    -3.967000000
H     5.811000000     2.825000000    -3.917000000
C     3.772000000     3.167000000    -4.282000000
O     3.958000000     4.517000000    -4.376000000
C     3.045000000     5.411000000    -3.884000000
C     2.742000000     5.401000000    -2.533000000
H     3.019000000     4.551000000    -1.914000000
C     2.419000000     6.330000000    -4.735000000
H     2.578000000     6.314000000    -5.810000000
C     1.512000000     7.267000000    -4.147000000
H     1.017000000     8.030000000    -4.742000000
C     1.254000000     7.237000000    -2.742000000
H     0.575000000     7.954000000    -2.288000000
C     1.840000000     6.265000000    -1.986000000
O     1.391000000     6.219000000    -0.630000000
C     0.374000000     5.637000000     0.057000000
C     0.481000000     5.619000000     1.464000000
H     1.300000000     5.992000000     2.073000000
C    -0.476000000     5.028000000     2.212000000
O    -0.316000000     4.989000000     3.583000000
C    -1.349000000     4.515000000     4.418000000
C    -2.566000000     5.203000000     4.520000000
H    -2.687000000     6.065000000     3.870000000
C    -3.543000000     4.774000000     5.447000000
H    -4.398000000     5.409000000     5.663000000
C    -3.279000000     3.647000000     6.226000000
H    -3.999000000     3.376000000     6.994000000
C    -2.041000000     2.957000000     6.162000000
C    -1.021000000     3.500000000     5.295000000
H    -0.046000000     3.020000000     5.326000000
C     1.408000000     0.089000000     2.523000000
H     1.716000000    -0.473000000     3.401000000
C     0.594000000    -0.412000000     1.504000000
H     0.236000000    -1.438000000     1.507000000
C     0.089000000     0.327000000     0.492000000
C    -0.743000000    -0.166000000    -0.694000000
H    -0.650000000     0.406000000    -1.619000000
H    -0.390000000    -1.157000000    -0.988000000
H    -1.819000000    -0.114000000    -0.516000000
C     0.582000000     1.610000000     0.350000000
H     0.366000000     2.135000000    -0.578000000
C     1.398000000     2.207000000     1.268000000
H     1.766000000     3.194000000     1.002000000
C     1.833000000     1.481000000     2.475000000
C     2.672000000     2.158000000     3.422000000
O     3.118000000     3.301000000     3.226000000
O     2.951000000     1.594000000     4.477000000
O     5.264000000     3.684000000     1.968000000
H     4.570000000     3.471000000     2.592000000
H     5.254000000     2.960000000     1.343000000
O     3.680000000     5.144000000     7.092000000
H     4.328000000     5.714000000     7.506000000
H     4.137000000     4.768000000     6.340000000
O     2.471000000     2.129000000     7.200000000
H     2.320000000     1.240000000     7.522000000
H     2.578000000     2.026000000     6.255000000
O     4.764000000    -1.294000000     7.673000000
H     4.697000000    -0.960000000     6.778000000
H     5.600000000    -0.955000000     7.993000000
O     3.117000000     5.773000000     4.033000000
H     2.963000000     4.891000000     3.695000000
H     2.646000000     5.796000000     4.866000000
O     7.168000000     1.324000000     3.846000000
H     7.812000000     1.806000000     4.366000000
H     7.494000000     1.382000000     2.948000000
O     6.692000000    -1.966000000     2.107000000
H     5.967000000    -1.349000000     2.208000000
H     6.480000000    -2.457000000     1.313000000
O     7.546000000     5.205000000     2.909000000
H     6.960000000     4.558000000     2.517000000
H     6.963000000     5.811000000     3.366000000
O     0.101000000     2.909000000     9.214000000
H     0.411000000     3.057000000    10.108000000
H     0.867000000     3.079000000     8.664000000
O     9.096000000    -0.494000000     4.446000000
H     8.232000000    -0.180000000     4.179000000
H     9.710000000     0.099000000     4.013000000
O     5.342000000     1.887000000    -0.396000000
H     5.453000000     1.338000000    -1.172000000
H     5.649000000     2.752000000    -0.668000000
O     1.506000000     6.575000000     6.403000000
H     0.690000000     6.299000000     6.820000000
H     2.126000000     5.873000000     6.602000000
O     3.609000000     2.892000000     9.483000000
H     3.449000000     2.721000000     8.555000000
H     4.563000000     2.929000000     9.558000000
O     4.384000000    -0.466000000     5.169000000
H     3.805000000     0.296000000     5.135000000
H     4.834000000    -0.461000000     4.324000000
O     4.495000000     0.000000000     1.791000000
H     3.807000000     0.567000000     2.141000000
H     4.862000000     0.494000000     1.057000000
O     3.988000000     6.829000000     0.558000000
H     4.265000000     6.448000000     1.391000000
H     3.222000000     6.315000000     0.304000000
O     0.013000000     8.069000000     4.460000000
H     0.589000000     8.370000000     3.757000000
H     0.425000000     7.266000000     4.779000000
O     6.508000000     1.278000000     6.658000000
H     6.180000000     2.165000000     6.508000000
H     6.520000000     0.877000000     5.789000000
O     5.202000000     3.347000000     5.478000000
H     5.912000000     3.227000000     4.847000000
H     4.489000000     2.804000000     5.143000000
