218
-1475.75598
C     3.434000000    -3.766000000     1.107000000
H     3.481000000    -3.833000000     0.023000000
C     2.191000000    -3.920000000     1.797000000
C     2.223000000    -4.026000000     3.183000000
H     1.270000000    -3.991000000     3.704000000
C     0.890000000    -3.943000000     1.069000000
O     1.091000000    -4.767000000    -0.112000000
H     0.726000000    -2.894000000     0.783000000
O    -0.121000000    -4.469000000     1.968000000
C    -1.489000000    -3.959000000     1.889000000
C    -1.916000000    -3.142000000     2.931000000
H    -1.287000000    -2.967000000     3.800000000
C    -3.062000000    -2.385000000     2.791000000
O    -3.264000000    -1.421000000     3.756000000
C    -3.876000000    -2.588000000     1.642000000
C    -5.160000000    -1.804000000     1.633000000
H    -5.965000000    -2.421000000     1.228000000
C    -4.987000000    -0.500000000     0.946000000
C    -4.853000000    -0.530000000    -0.460000000
H    -5.009000000    -1.460000000    -1.001000000
H    -5.548000000    -1.642000000     2.641000000
C    -3.525000000    -3.525000000     0.672000000
H    -4.171000000    -3.673000000    -0.189000000
C    -2.336000000    -4.263000000     0.776000000
C    -1.745000000    -5.170000000    -0.374000000
H    -2.651000000    -5.573000000    -0.832000000
H    -1.086000000    -5.969000000    -0.029000000
C    -0.922000000    -4.537000000    -1.538000000
C    -1.453000000    -3.922000000    -2.634000000
H    -2.524000000    -3.929000000    -2.818000000
C     0.438000000    -4.435000000    -1.266000000
C     1.261000000    -3.648000000    -2.126000000
H     2.305000000    -3.452000000    -1.896000000
C     0.743000000    -3.128000000    -3.290000000
O     1.595000000    -2.315000000    -4.016000000
C     1.395000000    -0.885000000    -3.836000000
C     2.772000000    -0.104000000    -3.809000000
C     2.908000000     1.165000000    -4.317000000
H     2.083000000     1.493000000    -4.944000000
C     3.946000000    -0.673000000    -3.335000000
H     3.900000000    -1.600000000    -2.770000000
O     0.574000000    -0.267000000    -4.870000000
H     0.819000000    -0.663000000    -2.926000000
C    -0.623000000    -3.294000000    -3.598000000
C    -1.251000000    -2.655000000    -4.802000000
H    -2.177000000    -3.148000000    -5.105000000
H    -0.482000000    -2.536000000    -5.568000000
C    -1.598000000    -1.256000000    -4.272000000
C    -2.818000000    -1.003000000    -3.735000000
H    -3.493000000    -1.847000000    -3.615000000
C    -0.718000000    -0.133000000    -4.531000000
C    -1.043000000     1.092000000    -4.123000000
H    -0.308000000     1.889000000    -4.213000000
C    -2.302000000     1.353000000    -3.508000000
O    -2.508000000     2.614000000    -3.096000000
C    -2.504000000     2.872000000    -1.706000000
C    -1.783000000     4.155000000    -1.409000000
C    -0.788000000     4.520000000    -2.319000000
H    -0.534000000     3.816000000    -3.107000000
C    -1.997000000     5.010000000    -0.320000000
H    -2.751000000     4.723000000     0.409000000
O    -3.829000000     2.888000000    -1.151000000
H    -1.854000000     2.113000000    -1.245000000
C    -3.167000000     0.287000000    -3.314000000
C    -4.562000000     0.611000000    -2.775000000
H    -5.403000000    -0.017000000    -3.077000000
H    -4.916000000     1.579000000    -3.136000000
C    -4.540000000     0.619000000    -1.223000000
C    -4.200000000     1.801000000    -0.525000000
C    -4.220000000     1.786000000     0.887000000
H    -3.765000000     2.629000000     1.400000000
C    -4.582000000     0.621000000     1.611000000
O    -4.225000000     0.522000000     2.906000000
C    -2.935000000    -0.157000000     3.291000000
H    -2.277000000    -0.245000000     2.414000000
C    -2.043000000     0.751000000     4.206000000
C    -1.180000000     0.048000000     5.049000000
H    -1.092000000    -1.033000000     4.973000000
C    -2.123000000     2.173000000     4.307000000
H    -2.915000000     2.681000000     3.762000000
C    -1.229000000     2.830000000     5.145000000
O    -1.084000000     4.244000000     5.187000000
C    -0.385000000     2.109000000     5.986000000
H     0.306000000     2.604000000     6.663000000
C    -0.328000000     0.721000000     5.875000000
O     0.684000000     0.073000000     6.532000000
C     0.931000000    -1.233000000     6.509000000
C     2.046000000    -1.725000000     5.865000000
H     2.731000000    -0.990000000     5.451000000
C     0.142000000    -2.085000000     7.327000000
H    -0.721000000    -1.709000000     7.870000000
C     0.523000000    -3.401000000     7.537000000
H    -0.040000000    -4.122000000     8.125000000
C     1.623000000    -3.888000000     6.777000000
H     1.730000000    -4.960000000     6.916000000
C     2.366000000    -3.111000000     5.939000000
O     3.415000000    -3.709000000     5.207000000
C     3.411000000    -3.851000000     3.856000000
C     4.597000000    -3.558000000     3.177000000
H     5.566000000    -3.426000000     3.652000000
C     4.612000000    -3.474000000     1.784000000
O     5.792000000    -3.351000000     1.071000000
C     5.988000000    -3.254000000    -0.303000000
C     6.009000000    -1.970000000    -0.897000000
H     5.667000000    -1.031000000    -0.471000000
C     6.241000000    -4.383000000    -1.099000000
H     6.264000000    -5.349000000    -0.601000000
C     6.436000000    -4.270000000    -2.487000000
H     6.528000000    -5.160000000    -3.104000000
C     6.524000000    -3.011000000    -3.053000000
H     6.747000000    -2.928000000    -4.114000000
C     6.309000000    -1.889000000    -2.226000000
O     6.305000000    -0.649000000    -2.790000000
C     5.212000000    -0.080000000    -3.420000000
C     5.304000000     1.210000000    -4.007000000
H     6.237000000     1.749000000    -4.150000000
C     4.148000000     1.882000000    -4.481000000
O     4.164000000     3.180000000    -4.914000000
C     2.996000000     3.935000000    -5.109000000
C     2.496000000     4.717000000    -4.049000000
H     3.094000000     4.755000000    -3.142000000
C     2.304000000     3.791000000    -6.324000000
H     2.726000000     3.294000000    -7.194000000
C     1.040000000     4.424000000    -6.464000000
H     0.536000000     4.361000000    -7.425000000
C     0.565000000     5.187000000    -5.407000000
H    -0.421000000     5.636000000    -5.496000000
C     1.292000000     5.352000000    -4.226000000
O     0.832000000     6.128000000    -3.185000000
C    -0.049000000     5.709000000    -2.155000000
C    -0.203000000     6.505000000    -1.048000000
H     0.426000000     7.381000000    -0.910000000
C    -1.118000000     6.157000000    -0.067000000
O    -1.158000000     6.862000000     1.094000000
C    -1.747000000     6.441000000     2.302000000
C    -2.972000000     6.973000000     2.723000000
H    -3.470000000     7.710000000     2.099000000
C    -3.563000000     6.552000000     3.911000000
H    -4.503000000     6.880000000     4.346000000
C    -2.987000000     5.631000000     4.743000000
H    -3.453000000     5.433000000     5.705000000
C    -1.742000000     5.101000000     4.332000000
C    -1.124000000     5.556000000     3.125000000
H    -0.139000000     5.205000000     2.828000000
C     0.866000000     1.719000000     2.104000000
H     1.133000000     1.746000000     3.158000000
C     0.104000000     0.689000000     1.547000000
H    -0.309000000    -0.073000000     2.203000000
C    -0.174000000     0.646000000     0.182000000
C    -0.820000000    -0.673000000    -0.248000000
H    -1.818000000    -0.438000000    -0.622000000
H    -0.190000000    -1.132000000    -1.013000000
H    -1.047000000    -1.321000000     0.601000000
C     0.484000000     1.520000000    -0.717000000
H     0.308000000     1.570000000    -1.789000000
C     1.331000000     2.472000000    -0.167000000
H     1.808000000     3.112000000    -0.905000000
C     1.526000000     2.589000000     1.204000000
C     2.412000000     3.668000000     1.654000000
O     3.211000000     4.173000000     0.910000000
O     2.404000000     4.077000000     2.801000000
O     4.614000000     3.133000000    -1.213000000
H     4.677000000     3.962000000    -1.687000000
H     3.968000000     3.298000000    -0.526000000
O     5.360000000     8.695000000     1.631000000
H     6.287000000     8.463000000     1.578000000
H     4.917000000     8.036000000     1.097000000
O     2.295000000     4.150000000     5.376000000
H     1.661000000     4.857000000     5.493000000
H     2.182000000     3.875000000     4.466000000
O     2.673000000     6.647000000     3.787000000
H     2.772000000     7.033000000     2.916000000
H     2.564000000     5.710000000     3.623000000
O     8.446000000     3.508000000     2.867000000
H     8.537000000     3.169000000     3.758000000
H     7.530000000     3.779000000     2.807000000
O     6.139000000     1.728000000     0.366000000
H     5.537000000     1.990000000    -0.330000000
H     5.863000000     2.237000000     1.127000000
O     5.070000000     5.912000000    -2.161000000
H     5.901000000     5.927000000    -1.687000000
H     5.131000000     6.644000000    -2.775000000
O     5.107000000     8.829000000     4.244000000
H     5.180000000     7.886000000     4.387000000
H     5.008000000     8.921000000     3.296000000
O     5.825000000     0.684000000     6.173000000
H     5.651000000    -0.195000000     6.509000000
H     4.961000000     1.089000000     6.101000000
O     0.074000000     8.551000000     3.822000000
H     0.254000000     8.353000000     2.903000000
H     0.715000000     9.223000000     4.053000000
O     3.446000000     1.660000000     5.694000000
H     3.156000000     2.572000000     5.698000000
H     2.838000000     1.213000000     6.283000000
O     7.177000000     0.053000000     3.708000000
H     6.666000000     0.768000000     3.328000000
H     6.873000000    -0.004000000     4.614000000
O     6.996000000     4.629000000    -0.681000000
H     6.810000000     3.690000000    -0.690000000
H     7.946000000     4.684000000    -0.575000000
O     5.481000000     4.492000000     1.833000000
H     5.928000000     4.830000000     1.057000000
H     4.561000000     4.437000000     1.575000000
O     1.421000000     8.277000000     1.279000000
H     1.935000000     9.053000000     1.055000000
H     1.958000000     7.541000000     0.985000000
O     5.287000000     2.241000000     3.378000000
H     5.011000000     2.992000000     2.852000000
H     4.788000000     2.322000000     4.191000000
O     1.087000000     6.874000000     5.833000000
H     0.514000000     7.304000000     5.198000000
H     1.963000000     6.951000000     5.457000000
O     5.036000000     5.866000000     5.697000000
H     4.922000000     5.876000000     4.747000000
H     4.222000000     5.489000000     6.032000000
O     3.634000000     6.788000000     0.293000000
H     3.424000000     5.894000000     0.562000000
H     3.937000000     6.701000000    -0.611000000
