218
-1431.59549
C     3.175000000    -3.263000000     0.417000000
H     3.045000000    -3.183000000    -0.659000000
C     2.079000000    -3.732000000     1.227000000
C     2.346000000    -4.041000000     2.550000000
H     1.536000000    -4.414000000     3.172000000
C     0.715000000    -3.969000000     0.595000000
O     0.829000000    -4.671000000    -0.618000000
H     0.310000000    -2.969000000     0.384000000
O    -0.201000000    -4.631000000     1.493000000
C    -1.442000000    -4.043000000     1.499000000
C    -1.783000000    -3.316000000     2.616000000
H    -1.048000000    -3.232000000     3.412000000
C    -2.941000000    -2.551000000     2.683000000
O    -3.140000000    -1.751000000     3.709000000
C    -3.782000000    -2.556000000     1.566000000
C    -5.002000000    -1.706000000     1.619000000
H    -5.814000000    -2.173000000     1.058000000
C    -4.756000000    -0.326000000     1.067000000
C    -5.051000000     0.001000000    -0.257000000
H    -5.574000000    -0.694000000    -0.910000000
H    -5.294000000    -1.738000000     2.671000000
C    -3.551000000    -3.399000000     0.454000000
H    -4.255000000    -3.530000000    -0.363000000
C    -2.366000000    -4.178000000     0.450000000
C    -2.038000000    -5.027000000    -0.777000000
H    -2.896000000    -5.294000000    -1.398000000
H    -1.421000000    -5.904000000    -0.573000000
C    -1.240000000    -4.287000000    -1.751000000
C    -1.859000000    -3.632000000    -2.866000000
H    -2.945000000    -3.682000000    -2.876000000
C     0.135000000    -4.263000000    -1.705000000
C     0.842000000    -3.438000000    -2.673000000
H     1.888000000    -3.226000000    -2.469000000
C     0.150000000    -2.718000000    -3.654000000
O     0.841000000    -1.971000000    -4.483000000
C     0.822000000    -0.491000000    -4.168000000
C     2.194000000     0.097000000    -4.248000000
C     2.337000000     1.472000000    -4.613000000
H     1.411000000     2.016000000    -4.783000000
C     3.325000000    -0.716000000    -4.130000000
H     3.161000000    -1.767000000    -3.906000000
O    -0.155000000     0.230000000    -5.034000000
H     0.513000000    -0.428000000    -3.114000000
C    -1.214000000    -2.772000000    -3.759000000
C    -2.025000000    -1.952000000    -4.774000000
H    -2.871000000    -2.572000000    -5.079000000
H    -1.521000000    -1.830000000    -5.736000000
C    -2.332000000    -0.521000000    -4.254000000
C    -3.476000000    -0.313000000    -3.472000000
H    -4.089000000    -1.128000000    -3.095000000
C    -1.386000000     0.505000000    -4.466000000
C    -1.648000000     1.807000000    -4.000000000
H    -0.944000000     2.632000000    -4.070000000
C    -2.829000000     2.057000000    -3.327000000
O    -2.837000000     3.319000000    -2.698000000
C    -2.484000000     3.298000000    -1.336000000
C    -1.492000000     4.398000000    -0.911000000
C    -0.551000000     4.845000000    -1.800000000
H    -0.534000000     4.475000000    -2.822000000
C    -1.479000000     4.904000000     0.395000000
H    -2.081000000     4.333000000     1.097000000
O    -3.651000000     3.331000000    -0.465000000
H    -2.035000000     2.302000000    -1.214000000
C    -3.727000000     1.006000000    -3.002000000
C    -4.973000000     1.386000000    -2.199000000
H    -5.671000000     0.621000000    -2.544000000
H    -5.277000000     2.396000000    -2.481000000
C    -4.755000000     1.251000000    -0.752000000
C    -4.060000000     2.190000000     0.031000000
C    -3.700000000     1.868000000     1.398000000
H    -3.174000000     2.529000000     2.082000000
C    -4.132000000     0.674000000     1.884000000
O    -3.671000000     0.478000000     3.142000000
C    -2.609000000    -0.399000000     3.354000000
H    -2.054000000    -0.402000000     2.404000000
C    -1.596000000     0.074000000     4.446000000
C    -0.991000000    -0.772000000     5.359000000
H    -1.207000000    -1.829000000     5.228000000
C    -1.427000000     1.427000000     4.633000000
H    -2.043000000     2.097000000     4.038000000
C    -0.519000000     1.977000000     5.525000000
O    -0.347000000     3.325000000     5.651000000
C     0.304000000     1.016000000     6.227000000
H     1.055000000     1.357000000     6.935000000
C     0.026000000    -0.333000000     6.159000000
O     0.685000000    -1.044000000     7.052000000
C     1.310000000    -2.188000000     6.740000000
C     2.298000000    -2.413000000     5.714000000
H     2.542000000    -1.628000000     5.003000000
C     0.965000000    -3.274000000     7.622000000
H     0.404000000    -3.204000000     8.551000000
C     1.632000000    -4.450000000     7.455000000
H     1.320000000    -5.302000000     8.053000000
C     2.571000000    -4.662000000     6.431000000
H     3.154000000    -5.574000000     6.334000000
C     2.805000000    -3.680000000     5.505000000
O     3.816000000    -3.828000000     4.545000000
C     3.563000000    -3.616000000     3.183000000
C     4.627000000    -3.200000000     2.386000000
H     5.573000000    -3.065000000     2.905000000
C     4.420000000    -3.126000000     0.998000000
O     5.433000000    -2.595000000     0.209000000
C     5.623000000    -2.869000000    -1.126000000
C     5.675000000    -1.794000000    -2.064000000
H     5.497000000    -0.785000000    -1.701000000
C     5.923000000    -4.181000000    -1.545000000
H     6.104000000    -4.988000000    -0.840000000
C     6.129000000    -4.375000000    -2.924000000
H     6.265000000    -5.408000000    -3.235000000
C     6.051000000    -3.372000000    -3.880000000
H     6.163000000    -3.587000000    -4.940000000
C     5.844000000    -2.063000000    -3.416000000
O     5.703000000    -1.031000000    -4.297000000
C     4.613000000    -0.235000000    -4.315000000
C     4.738000000     1.054000000    -4.594000000
H     5.729000000     1.428000000    -4.835000000
C     3.675000000     1.948000000    -4.723000000
O     3.875000000     3.278000000    -5.033000000
C     2.879000000     4.185000000    -4.880000000
C     2.602000000     4.739000000    -3.621000000
H     3.142000000     4.535000000    -2.700000000
C     2.123000000     4.568000000    -5.980000000
H     2.400000000     4.253000000    -6.982000000
C     1.127000000     5.546000000    -5.912000000
H     0.577000000     5.955000000    -6.755000000
C     0.881000000     6.039000000    -4.657000000
H     0.180000000     6.865000000    -4.568000000
C     1.630000000     5.707000000    -3.556000000
O     1.206000000     6.296000000    -2.403000000
C     0.300000000     5.816000000    -1.442000000
C     0.267000000     6.405000000    -0.204000000
H     1.021000000     7.104000000     0.149000000
C    -0.662000000     5.968000000     0.723000000
O    -0.784000000     6.597000000     1.988000000
C    -1.267000000     5.953000000     3.144000000
C    -2.538000000     6.234000000     3.563000000
H    -2.983000000     6.978000000     2.907000000
C    -3.171000000     5.550000000     4.635000000
H    -4.160000000     5.881000000     4.938000000
C    -2.461000000     4.552000000     5.310000000
H    -2.879000000     4.127000000     6.219000000
C    -1.148000000     4.250000000     4.893000000
C    -0.554000000     5.018000000     3.890000000
H     0.484000000     4.730000000     3.744000000
C     1.598000000     0.775000000     2.870000000
H     1.931000000     0.372000000     3.823000000
C     0.815000000     0.137000000     1.891000000
H     0.570000000    -0.905000000     2.078000000
C     0.513000000     0.669000000     0.687000000
C    -0.049000000    -0.237000000    -0.401000000
H     0.785000000    -0.719000000    -0.916000000
H    -0.720000000    -1.028000000    -0.061000000
H    -0.633000000     0.380000000    -1.086000000
C     0.900000000     2.001000000     0.436000000
H     0.683000000     2.412000000    -0.547000000
C     1.686000000     2.717000000     1.447000000
H     2.037000000     3.724000000     1.236000000
C     2.073000000     2.120000000     2.675000000
C     3.009000000     2.779000000     3.677000000
O     3.243000000     3.936000000     3.475000000
O     3.488000000     2.074000000     4.551000000
O     5.230000000     5.224000000     2.261000000
H     5.901000000     5.061000000     2.924000000
H     4.464000000     4.741000000     2.570000000
O     4.505000000     8.407000000     3.693000000
H     5.300000000     7.876000000     3.739000000
H     4.521000000     8.932000000     4.494000000
O     3.267000000     3.045000000     7.255000000
H     3.182000000     2.402000000     6.550000000
H     2.990000000     3.871000000     6.859000000
O     2.492000000     7.440000000     2.368000000
H     2.505000000     6.496000000     2.525000000
H     3.142000000     7.793000000     2.975000000
O     5.912000000    -0.367000000     2.463000000
H     5.552000000     0.009000000     1.660000000
H     6.849000000    -0.457000000     2.287000000
O     5.225000000     5.015000000    -0.493000000
H     4.792000000     5.235000000     0.331000000
H     5.508000000     4.107000000    -0.380000000
O     7.343000000     5.774000000     4.957000000
H     6.835000000     4.968000000     5.057000000
H     8.002000000     5.562000000     4.296000000
O     1.001000000     7.460000000     5.466000000
H     1.578000000     8.206000000     5.305000000
H     0.573000000     7.301000000     4.625000000
O     5.963000000     1.822000000    -1.271000000
H     5.324000000     1.643000000    -0.582000000
H     6.734000000     1.313000000    -1.020000000
O     5.899000000     3.041000000     4.810000000
H     5.007000000     2.696000000     4.771000000
H     6.452000000     2.265000000     4.903000000
O     6.110000000     3.609000000     7.458000000
H     5.246000000     3.224000000     7.601000000
H     6.162000000     3.735000000     6.511000000
O     2.206000000     2.833000000     9.887000000
H     2.956000000     2.358000000    10.245000000
H     2.424000000     2.965000000     8.964000000
O     8.579000000     1.628000000     4.474000000
H     8.917000000     2.420000000     4.892000000
H     8.692000000     1.784000000     3.537000000
O     2.677000000     5.378000000     5.889000000
H     2.924000000     4.912000000     5.089000000
H     2.040000000     6.030000000     5.599000000
O     5.322000000     7.731000000     0.663000000
H     5.759000000     7.350000000    -0.099000000
H     5.283000000     7.016000000     1.298000000
O     2.418000000     6.598000000     8.311000000
H     2.353000000     6.154000000     7.466000000
H     3.356000000     6.610000000     8.503000000
O     5.281000000     0.154000000     5.359000000
H     5.643000000    -0.185000000     4.540000000
H     4.728000000     0.888000000     5.091000000
O     4.599000000     1.684000000     1.103000000
H     4.661000000     2.213000000     1.898000000
H     3.716000000     1.316000000     1.128000000
O     4.335000000    -0.955000000     7.819000000
H     4.570000000    -1.882000000     7.788000000
H     4.525000000    -0.630000000     6.939000000
