218
-1450.98538
C     3.233000000    -3.622000000     3.141000000
H     3.537000000    -3.924000000     2.142000000
C     1.876000000    -3.634000000     3.456000000
C     1.618000000    -3.057000000     4.725000000
H     0.602000000    -2.903000000     5.079000000
C     0.813000000    -3.885000000     2.431000000
O     1.240000000    -4.897000000     1.482000000
H     0.513000000    -2.963000000     1.911000000
O    -0.448000000    -4.342000000     3.125000000
C    -1.576000000    -3.815000000     2.602000000
C    -1.983000000    -2.544000000     3.071000000
H    -1.550000000    -2.128000000     3.978000000
C    -3.190000000    -1.931000000     2.629000000
O    -3.715000000    -0.749000000     3.120000000
C    -3.743000000    -2.504000000     1.476000000
C    -4.976000000    -1.943000000     0.789000000
H    -5.534000000    -2.733000000     0.282000000
C    -4.737000000    -0.797000000    -0.164000000
C    -4.497000000    -1.124000000    -1.520000000
H    -4.502000000    -2.167000000    -1.825000000
H    -5.681000000    -1.549000000     1.524000000
C    -3.189000000    -3.657000000     0.914000000
H    -3.634000000    -4.114000000     0.033000000
C    -2.015000000    -4.268000000     1.368000000
C    -1.449000000    -5.420000000     0.545000000
H    -2.204000000    -5.951000000    -0.038000000
H    -1.058000000    -6.281000000     1.092000000
C    -0.338000000    -4.955000000    -0.395000000
C    -0.618000000    -4.782000000    -1.703000000
H    -1.577000000    -4.992000000    -2.168000000
C     0.912000000    -4.687000000     0.115000000
C     1.863000000    -4.202000000    -0.728000000
H     2.877000000    -3.976000000    -0.409000000
C     1.574000000    -3.742000000    -2.038000000
O     2.477000000    -2.909000000    -2.644000000
C     2.236000000    -1.531000000    -2.906000000
C     3.526000000    -0.785000000    -2.712000000
C     3.635000000     0.460000000    -3.339000000
H     2.898000000     0.927000000    -3.988000000
C     4.570000000    -1.362000000    -1.963000000
H     4.445000000    -2.293000000    -1.417000000
O     1.671000000    -1.322000000    -4.267000000
H     1.598000000    -1.049000000    -2.151000000
C     0.324000000    -4.037000000    -2.490000000
C    -0.045000000    -3.718000000    -3.943000000
H    -0.873000000    -4.358000000    -4.257000000
H     0.859000000    -3.978000000    -4.497000000
C    -0.578000000    -2.297000000    -4.202000000
C    -1.957000000    -2.083000000    -4.182000000
H    -2.654000000    -2.913000000    -4.099000000
C     0.299000000    -1.135000000    -4.315000000
C    -0.225000000     0.130000000    -4.548000000
H     0.434000000     0.943000000    -4.840000000
C    -1.592000000     0.311000000    -4.441000000
O    -2.095000000     1.635000000    -4.461000000
C    -2.285000000     2.248000000    -3.174000000
C    -1.737000000     3.645000000    -3.172000000
C    -0.406000000     3.994000000    -3.497000000
H     0.224000000     3.191000000    -3.869000000
C    -2.575000000     4.716000000    -2.660000000
H    -3.649000000     4.611000000    -2.531000000
O    -3.732000000     2.202000000    -2.770000000
H    -1.665000000     1.773000000    -2.400000000
C    -2.481000000    -0.775000000    -4.237000000
C    -3.951000000    -0.500000000    -3.923000000
H    -4.628000000    -1.314000000    -4.192000000
H    -4.228000000     0.298000000    -4.616000000
C    -4.210000000    -0.082000000    -2.444000000
C    -4.124000000     1.203000000    -1.963000000
C    -4.254000000     1.568000000    -0.629000000
H    -4.139000000     2.597000000    -0.298000000
C    -4.595000000     0.557000000     0.239000000
O    -4.630000000     0.872000000     1.578000000
C    -3.443000000     0.462000000     2.329000000
H    -2.699000000     0.107000000     1.600000000
C    -2.855000000     1.668000000     3.114000000
C    -2.151000000     1.395000000     4.306000000
H    -2.237000000     0.393000000     4.718000000
C    -2.845000000     2.909000000     2.627000000
H    -3.335000000     3.133000000     1.683000000
C    -2.060000000     3.915000000     3.155000000
O    -2.100000000     5.225000000     2.581000000
C    -1.228000000     3.644000000     4.212000000
H    -0.438000000     4.332000000     4.504000000
C    -1.346000000     2.409000000     4.830000000
O    -0.291000000     2.108000000     5.675000000
C    -0.074000000     0.910000000     6.394000000
C     0.976000000     0.048000000     6.035000000
H     1.687000000     0.318000000     5.259000000
C    -0.886000000     0.603000000     7.416000000
H    -1.743000000     1.260000000     7.535000000
C    -0.619000000    -0.477000000     8.275000000
H    -1.227000000    -0.633000000     9.163000000
C     0.445000000    -1.289000000     7.940000000
H     0.675000000    -2.075000000     8.655000000
C     1.205000000    -1.051000000     6.845000000
O     2.333000000    -1.889000000     6.709000000
C     2.610000000    -2.531000000     5.569000000
C     3.943000000    -2.438000000     5.134000000
H     4.685000000    -1.804000000     5.612000000
C     4.231000000    -2.887000000     3.867000000
O     5.525000000    -2.791000000     3.410000000
C     5.863000000    -2.982000000     2.080000000
C     5.904000000    -1.924000000     1.185000000
H     5.713000000    -0.916000000     1.544000000
C     6.215000000    -4.229000000     1.661000000
H     6.022000000    -5.019000000     2.383000000
C     6.767000000    -4.421000000     0.398000000
H     7.216000000    -5.379000000     0.149000000
C     6.855000000    -3.377000000    -0.519000000
H     7.349000000    -3.525000000    -1.475000000
C     6.495000000    -2.126000000    -0.073000000
O     6.697000000    -1.048000000    -0.933000000
C     5.701000000    -0.608000000    -1.748000000
C     5.807000000     0.675000000    -2.311000000
H     6.764000000     1.189000000    -2.292000000
C     4.794000000     1.133000000    -3.120000000
O     4.990000000     2.340000000    -3.721000000
C     4.039000000     3.143000000    -4.269000000
C     3.212000000     3.926000000    -3.497000000
H     3.364000000     4.042000000    -2.427000000
C     3.778000000     2.850000000    -5.628000000
H     4.404000000     2.119000000    -6.133000000
C     2.785000000     3.495000000    -6.320000000
H     2.514000000     3.361000000    -7.364000000
C     1.996000000     4.407000000    -5.599000000
H     1.080000000     4.826000000    -6.008000000
C     2.158000000     4.615000000    -4.219000000
O     1.349000000     5.481000000    -3.558000000
C     0.034000000     5.232000000    -3.251000000
C    -0.744000000     6.284000000    -2.705000000
H    -0.350000000     7.257000000    -2.426000000
C    -2.085000000     5.970000000    -2.439000000
O    -2.794000000     7.019000000    -1.817000000
C    -3.288000000     6.702000000    -0.562000000
C    -4.616000000     6.438000000    -0.511000000
H    -5.327000000     6.585000000    -1.321000000
C    -5.186000000     5.811000000     0.560000000
H    -6.255000000     5.634000000     0.651000000
C    -4.428000000     5.479000000     1.657000000
H    -4.899000000     5.020000000     2.522000000
C    -3.024000000     5.629000000     1.605000000
C    -2.469000000     6.256000000     0.476000000
H    -1.415000000     6.513000000     0.415000000
C     2.074000000     0.837000000     0.639000000
H     3.132000000     0.592000000     0.680000000
C     1.156000000    -0.103000000     0.238000000
H     1.491000000    -1.134000000     0.158000000
C    -0.207000000     0.208000000     0.104000000
C    -1.210000000    -0.748000000    -0.515000000
H    -1.697000000    -1.265000000     0.314000000
H    -1.947000000    -0.200000000    -1.107000000
H    -0.775000000    -1.513000000    -1.162000000
C    -0.609000000     1.495000000     0.279000000
H    -1.628000000     1.737000000    -0.010000000
C     0.287000000     2.513000000     0.732000000
H    -0.097000000     3.501000000     0.974000000
C     1.632000000     2.122000000     0.977000000
C     2.588000000     3.133000000     1.545000000
O     2.226000000     4.263000000     1.761000000
O     3.754000000     2.843000000     1.682000000
O     4.312000000     9.480000000     0.578000000
H     3.487000000     9.269000000     0.141000000
H     4.305000000     8.947000000     1.374000000
O     0.607000000     6.334000000     2.864000000
H    -0.236000000     5.879000000     2.849000000
H     1.234000000     5.686000000     2.544000000
O     5.804000000     3.836000000     5.096000000
H     6.033000000     4.590000000     5.639000000
H     4.870000000     3.943000000     4.919000000
O     7.113000000     7.715000000     0.365000000
H     6.924000000     6.791000000     0.203000000
H     6.760000000     7.882000000     1.239000000
O     6.118000000     2.187000000     2.309000000
H     5.277000000     2.568000000     2.057000000
H     6.770000000     2.770000000     1.920000000
O     5.384000000     6.175000000    -2.342000000
H     5.566000000     5.385000000    -1.832000000
H     4.558000000     6.504000000    -1.988000000
O     7.616000000     0.351000000     3.656000000
H     8.298000000     0.293000000     2.988000000
H     7.010000000     1.014000000     3.324000000
O     5.577000000     4.242000000    -0.458000000
H     6.343000000     4.379000000     0.100000000
H     5.007000000     3.668000000     0.053000000
O     3.820000000     6.411000000     1.354000000
H     3.498000000     5.543000000     1.598000000
H     3.640000000     6.477000000     0.416000000
O     6.286000000     7.110000000     2.962000000
H     5.554000000     6.605000000     2.607000000
H     5.875000000     7.875000000     3.365000000
O     2.341000000     6.907000000     5.897000000
H     2.066000000     6.341000000     6.618000000
H     1.543000000     7.367000000     5.635000000
O     3.338000000     4.547000000     4.468000000
H     3.274000000     5.392000000     4.914000000
H     2.962000000     4.704000000     3.602000000
O     2.754000000     8.412000000     2.938000000
H     3.023000000     7.732000000     2.320000000
H     1.903000000     8.118000000     3.262000000
O     8.534000000     5.518000000     3.799000000
H     7.601000000     5.727000000     3.831000000
H     8.678000000     4.949000000     4.555000000
O     7.982000000     4.096000000     1.167000000
H     8.592000000     3.527000000     1.636000000
H     8.021000000     4.929000000     1.637000000
O     3.029000000     6.571000000    -1.487000000
H     2.513000000     6.155000000    -2.177000000
H     2.550000000     7.374000000    -1.281000000
O     3.691000000     1.990000000     4.338000000
H     3.740000000     1.947000000     3.383000000
H     3.340000000     2.862000000     4.521000000
O     4.310000000     1.045000000     6.903000000
H     4.208000000     1.377000000     6.011000000
H     3.453000000     0.679000000     7.122000000
O    -0.968000000     8.328000000     3.667000000
H    -1.059000000     9.110000000     3.123000000
H    -0.548000000     7.685000000     3.095000000
