218
-1461.29074
C     2.805000000    -2.568000000     2.799000000
H     3.096000000    -2.898000000     1.805000000
C     1.606000000    -2.994000000     3.257000000
C     1.202000000    -2.541000000     4.569000000
H     0.229000000    -2.726000000     5.016000000
C     0.559000000    -3.606000000     2.318000000
O     1.003000000    -4.734000000     1.668000000
H     0.423000000    -2.889000000     1.495000000
O    -0.670000000    -3.902000000     3.060000000
C    -1.837000000    -3.447000000     2.504000000
C    -2.467000000    -2.290000000     3.049000000
H    -1.989000000    -1.834000000     3.913000000
C    -3.570000000    -1.713000000     2.356000000
O    -4.026000000    -0.476000000     2.847000000
C    -4.199000000    -2.309000000     1.291000000
C    -5.401000000    -1.722000000     0.508000000
H    -5.977000000    -2.528000000     0.048000000
C    -4.923000000    -0.714000000    -0.505000000
C    -4.711000000    -1.079000000    -1.815000000
H    -4.756000000    -2.129000000    -2.093000000
H    -6.135000000    -1.241000000     1.158000000
C    -3.632000000    -3.474000000     0.851000000
H    -4.057000000    -3.970000000    -0.018000000
C    -2.476000000    -3.991000000     1.354000000
C    -1.866000000    -5.242000000     0.672000000
H    -2.697000000    -5.562000000     0.041000000
H    -1.727000000    -6.024000000     1.422000000
C    -0.669000000    -4.822000000    -0.173000000
C    -0.917000000    -4.554000000    -1.551000000
H    -1.948000000    -4.624000000    -1.887000000
C     0.665000000    -4.685000000     0.343000000
C     1.692000000    -4.496000000    -0.598000000
H     2.720000000    -4.390000000    -0.263000000
C     1.405000000    -4.245000000    -1.921000000
O     2.414000000    -3.643000000    -2.679000000
C     2.251000000    -2.241000000    -2.951000000
C     3.672000000    -1.665000000    -2.837000000
C     3.923000000    -0.459000000    -3.421000000
H     3.126000000     0.071000000    -3.936000000
C     4.605000000    -2.293000000    -1.945000000
H     4.433000000    -3.205000000    -1.379000000
O     1.671000000    -2.029000000    -4.316000000
H     1.603000000    -1.857000000    -2.149000000
C     0.109000000    -4.302000000    -2.436000000
C    -0.257000000    -4.124000000    -3.944000000
H    -1.041000000    -4.819000000    -4.251000000
H     0.650000000    -4.418000000    -4.477000000
C    -0.649000000    -2.671000000    -4.314000000
C    -1.989000000    -2.324000000    -4.182000000
H    -2.757000000    -3.081000000    -4.048000000
C     0.320000000    -1.671000000    -4.419000000
C    -0.053000000    -0.400000000    -4.467000000
H     0.740000000     0.340000000    -4.547000000
C    -1.378000000     0.023000000    -4.497000000
O    -1.680000000     1.346000000    -4.558000000
C    -1.965000000     2.011000000    -3.329000000
C    -1.207000000     3.345000000    -3.199000000
C     0.121000000     3.450000000    -3.507000000
H     0.590000000     2.621000000    -4.031000000
C    -1.866000000     4.450000000    -2.602000000
H    -2.908000000     4.427000000    -2.294000000
O    -3.379000000     2.140000000    -3.129000000
H    -1.742000000     1.303000000    -2.516000000
C    -2.396000000    -0.987000000    -4.245000000
C    -3.826000000    -0.593000000    -4.099000000
H    -4.471000000    -1.384000000    -4.488000000
H    -3.981000000     0.256000000    -4.768000000
C    -4.230000000    -0.148000000    -2.747000000
C    -4.071000000     1.197000000    -2.375000000
C    -4.369000000     1.639000000    -1.120000000
H    -4.019000000     2.605000000    -0.764000000
C    -4.688000000     0.666000000    -0.174000000
O    -4.704000000     1.056000000     1.150000000
C    -3.614000000     0.642000000     2.031000000
H    -2.827000000     0.298000000     1.343000000
C    -3.107000000     1.798000000     2.864000000
C    -2.474000000     1.573000000     4.109000000
H    -2.250000000     0.560000000     4.433000000
C    -3.237000000     3.133000000     2.463000000
H    -3.735000000     3.301000000     1.511000000
C    -2.762000000     4.159000000     3.149000000
O    -2.905000000     5.467000000     2.723000000
C    -2.062000000     3.871000000     4.357000000
H    -1.607000000     4.617000000     5.004000000
C    -1.937000000     2.605000000     4.851000000
O    -1.153000000     2.478000000     6.042000000
C    -0.987000000     1.258000000     6.563000000
C     0.186000000     0.604000000     6.199000000
H     0.932000000     1.000000000     5.515000000
C    -1.772000000     0.738000000     7.559000000
H    -2.679000000     1.300000000     7.769000000
C    -1.526000000    -0.528000000     8.118000000
H    -2.104000000    -1.034000000     8.886000000
C    -0.292000000    -1.098000000     7.786000000
H     0.104000000    -1.963000000     8.312000000
C     0.534000000    -0.573000000     6.776000000
O     1.717000000    -1.134000000     6.565000000
C     2.065000000    -1.712000000     5.340000000
C     3.262000000    -1.351000000     4.785000000
H     3.898000000    -0.589000000     5.227000000
C     3.610000000    -1.761000000     3.536000000
O     4.745000000    -1.223000000     2.965000000
C     5.621000000    -2.063000000     2.295000000
C     5.936000000    -1.667000000     0.995000000
H     5.379000000    -0.850000000     0.544000000
C     6.347000000    -3.071000000     2.997000000
H     6.098000000    -3.306000000     4.029000000
C     7.285000000    -3.778000000     2.309000000
H     7.788000000    -4.639000000     2.741000000
C     7.372000000    -3.492000000     0.945000000
H     7.866000000    -4.227000000     0.316000000
C     6.790000000    -2.489000000     0.255000000
O     6.853000000    -2.412000000    -1.113000000
C     5.876000000    -1.742000000    -1.872000000
C     6.128000000    -0.517000000    -2.475000000
H     7.104000000    -0.041000000    -2.428000000
C     5.217000000     0.090000000    -3.237000000
O     5.581000000     1.355000000    -3.620000000
C     4.856000000     2.427000000    -4.230000000
C     3.706000000     2.892000000    -3.570000000
H     3.413000000     2.466000000    -2.613000000
C     5.303000000     2.938000000    -5.422000000
H     6.202000000     2.549000000    -5.893000000
C     4.605000000     3.987000000    -5.984000000
H     4.907000000     4.544000000    -6.867000000
C     3.548000000     4.595000000    -5.297000000
H     2.998000000     5.465000000    -5.647000000
C     3.114000000     4.085000000    -4.039000000
O     2.176000000     4.765000000    -3.398000000
C     0.839000000     4.587000000    -3.280000000
C     0.249000000     5.579000000    -2.560000000
H     0.888000000     6.386000000    -2.211000000
C    -1.096000000     5.553000000    -2.271000000
O    -1.572000000     6.644000000    -1.500000000
C    -2.642000000     6.595000000    -0.619000000
C    -3.966000000     6.780000000    -1.018000000
H    -4.190000000     7.191000000    -1.999000000
C    -5.022000000     6.352000000    -0.177000000
H    -6.057000000     6.478000000    -0.486000000
C    -4.650000000     5.925000000     1.133000000
H    -5.335000000     5.684000000     1.942000000
C    -3.287000000     5.789000000     1.484000000
C    -2.329000000     6.052000000     0.611000000
H    -1.293000000     5.940000000     0.920000000
C     1.970000000     1.639000000     0.179000000
H     3.057000000     1.632000000     0.164000000
C     1.353000000     0.402000000     0.010000000
H     1.945000000    -0.499000000    -0.129000000
C    -0.004000000     0.368000000    -0.235000000
C    -0.738000000    -0.934000000    -0.407000000
H    -0.840000000    -1.247000000     0.634000000
H    -1.700000000    -0.806000000    -0.908000000
H    -0.171000000    -1.747000000    -0.866000000
C    -0.779000000     1.547000000    -0.310000000
H    -1.863000000     1.477000000    -0.366000000
C    -0.158000000     2.781000000    -0.023000000
H    -0.723000000     3.709000000     0.006000000
C     1.222000000     2.827000000     0.216000000
C     1.857000000     4.140000000     0.625000000
O     1.191000000     4.977000000     1.140000000
O     3.075000000     4.273000000     0.565000000
O     0.882000000     4.037000000     3.632000000
H    -0.017000000     3.713000000     3.593000000
H     1.123000000     4.186000000     2.718000000
O     5.329000000     7.596000000     4.247000000
H     4.842000000     6.775000000     4.321000000
H     5.129000000     8.067000000     5.057000000
O     3.681000000     9.537000000    -1.401000000
H     2.726000000     9.577000000    -1.352000000
H     3.884000000     8.602000000    -1.370000000
O     4.419000000     1.614000000     3.224000000
H     4.904000000     1.968000000     2.478000000
H     4.129000000     0.750000000     2.932000000
O     5.926000000     6.306000000    -0.454000000
H     5.813000000     5.365000000    -0.584000000
H     5.034000000     6.650000000    -0.409000000
O     5.960000000     5.943000000    -3.823000000
H     5.726000000     5.257000000    -3.199000000
H     5.131000000     6.379000000    -4.022000000
O     6.508000000     1.937000000     1.330000000
H     7.036000000     2.729000000     1.431000000
H     7.092000000     1.225000000     1.590000000
O     6.362000000     3.131000000     4.564000000
H     6.839000000     3.665000000     3.928000000
H     5.609000000     2.795000000     4.078000000
O     5.341000000     3.773000000    -0.659000000
H     5.745000000     3.014000000    -0.238000000
H     4.487000000     3.855000000    -0.236000000
O     1.479000000     7.424000000     1.986000000
H     1.486000000     7.519000000     2.938000000
H     1.304000000     6.494000000     1.839000000
O     3.920000000     5.471000000     2.818000000
H     3.581000000     4.866000000     2.159000000
H     4.034000000     6.298000000     2.349000000
O     3.908000000     4.978000000     6.148000000
H     3.901000000     4.240000000     5.538000000
H     3.008000000     5.030000000     6.470000000
O     1.996000000     6.549000000     4.464000000
H     1.456000000     5.830000000     4.137000000
H     2.877000000     6.352000000     4.145000000
O     0.896000000     9.137000000     5.235000000
H     1.205000000     8.234000000     5.167000000
H     1.501000000     9.639000000     4.689000000
O     3.172000000     6.842000000    -0.613000000
H     2.898000000     5.926000000    -0.643000000
H     2.643000000     7.228000000     0.084000000
O     2.618000000     2.633000000     5.197000000
H     3.199000000     2.241000000     4.546000000
H     1.948000000     3.082000000     4.682000000
O     7.084000000     6.630000000     2.370000000
H     6.816000000     6.692000000     1.453000000
H     6.467000000     7.192000000     2.838000000
O    -0.150000000     8.749000000     0.175000000
H    -0.247000000     8.026000000    -0.446000000
H     0.202000000     8.340000000     0.965000000
O     1.225000000    10.702000000    -1.239000000
H     0.687000000    10.051000000    -0.788000000
H     0.857000000    11.544000000    -0.970000000
