218
-1443.58027
C     1.877000000    -0.369000000     4.994000000
H     2.464000000    -1.239000000     4.713000000
C     0.504000000    -0.359000000     4.836000000
C    -0.211000000     0.708000000     5.351000000
H    -1.296000000     0.720000000     5.297000000
C    -0.232000000    -1.470000000     4.066000000
O     0.498000000    -2.701000000     4.080000000
H    -0.303000000    -1.234000000     2.994000000
O    -1.631000000    -1.675000000     4.472000000
C    -2.602000000    -1.939000000     3.492000000
C    -3.422000000    -0.918000000     3.265000000
H    -3.300000000     0.062000000     3.721000000
C    -4.256000000    -1.013000000     2.131000000
O    -4.941000000     0.125000000     1.787000000
C    -4.293000000    -2.216000000     1.402000000
C    -5.214000000    -2.378000000     0.164000000
H    -5.538000000    -3.420000000     0.109000000
C    -4.521000000    -1.850000000    -1.020000000
C    -3.799000000    -2.746000000    -1.815000000
H    -3.752000000    -3.768000000    -1.448000000
H    -6.184000000    -1.951000000     0.428000000
C    -3.502000000    -3.340000000     1.773000000
H    -3.530000000    -4.266000000     1.206000000
C    -2.579000000    -3.148000000     2.818000000
C    -1.668000000    -4.292000000     3.174000000
H    -2.106000000    -5.275000000     2.989000000
H    -1.409000000    -4.281000000     4.235000000
C    -0.375000000    -4.208000000     2.410000000
C    -0.210000000    -4.892000000     1.168000000
H    -0.958000000    -5.578000000     0.779000000
C     0.638000000    -3.390000000     2.882000000
C     1.813000000    -3.242000000     2.210000000
H     2.597000000    -2.595000000     2.594000000
C     1.953000000    -3.855000000     0.935000000
O     3.085000000    -3.535000000     0.200000000
C     3.024000000    -2.715000000    -0.983000000
C     4.118000000    -1.625000000    -1.051000000
C     4.797000000    -1.412000000    -2.212000000
H     4.632000000    -1.941000000    -3.147000000
C     4.484000000    -0.902000000     0.140000000
H     3.921000000    -1.037000000     1.060000000
O     2.946000000    -3.488000000    -2.190000000
H     2.105000000    -2.115000000    -0.908000000
C     0.985000000    -4.726000000     0.410000000
C     1.272000000    -5.402000000    -0.900000000
H     0.662000000    -6.307000000    -0.938000000
H     2.325000000    -5.677000000    -0.982000000
C     0.772000000    -4.490000000    -2.100000000
C    -0.565000000    -4.421000000    -2.555000000
H    -1.342000000    -5.048000000    -2.124000000
C     1.698000000    -3.676000000    -2.693000000
C     1.378000000    -2.828000000    -3.750000000
H     2.003000000    -2.043000000    -4.169000000
C     0.035000000    -2.694000000    -4.100000000
O    -0.336000000    -1.647000000    -4.901000000
C    -0.791000000    -0.555000000    -4.130000000
C    -0.042000000     0.690000000    -4.333000000
C     1.199000000     0.709000000    -4.971000000
H     1.566000000    -0.155000000    -5.519000000
C    -0.579000000     1.824000000    -3.881000000
H    -1.492000000     1.782000000    -3.292000000
O    -2.208000000    -0.367000000    -4.256000000
H    -0.701000000    -0.938000000    -3.102000000
C    -0.937000000    -3.441000000    -3.468000000
C    -2.360000000    -3.310000000    -3.803000000
H    -2.887000000    -4.257000000    -3.670000000
H    -2.557000000    -2.930000000    -4.807000000
C    -3.054000000    -2.322000000    -2.934000000
C    -2.979000000    -0.918000000    -3.274000000
C    -3.781000000    -0.076000000    -2.580000000
H    -3.602000000     0.962000000    -2.850000000
C    -4.507000000    -0.492000000    -1.390000000
O    -5.208000000     0.527000000    -0.619000000
C    -4.507000000     0.898000000     0.606000000
H    -3.436000000     0.674000000     0.490000000
C    -4.463000000     2.436000000     0.888000000
C    -4.212000000     2.915000000     2.176000000
H    -4.316000000     2.243000000     3.023000000
C    -4.463000000     3.343000000    -0.213000000
H    -4.620000000     2.987000000    -1.228000000
C    -4.316000000     4.737000000    -0.002000000
O    -4.355000000     5.630000000    -1.054000000
C    -4.086000000     5.201000000     1.309000000
H    -4.002000000     6.273000000     1.472000000
C    -3.990000000     4.273000000     2.343000000
O    -3.796000000     4.748000000     3.631000000
C    -3.397000000     3.988000000     4.732000000
C    -2.051000000     3.747000000     4.925000000
H    -1.234000000     3.948000000     4.238000000
C    -4.308000000     3.513000000     5.623000000
H    -5.363000000     3.761000000     5.531000000
C    -3.915000000     2.739000000     6.795000000
H    -4.525000000     2.277000000     7.567000000
C    -2.521000000     2.584000000     6.968000000
H    -2.211000000     1.976000000     7.814000000
C    -1.631000000     3.007000000     6.025000000
O    -0.258000000     2.915000000     6.264000000
C     0.437000000     1.772000000     5.961000000
C     1.811000000     1.759000000     6.094000000
H     2.358000000     2.604000000     6.504000000
C     2.509000000     0.687000000     5.619000000
O     3.877000000     0.695000000     5.763000000
C     4.737000000     0.296000000     4.693000000
C     4.650000000     0.791000000     3.400000000
H     3.960000000     1.570000000     3.088000000
C     5.829000000    -0.491000000     5.068000000
H     5.965000000    -0.812000000     6.097000000
C     6.770000000    -0.875000000     4.093000000
H     7.477000000    -1.567000000     4.543000000
C     6.672000000    -0.309000000     2.824000000
H     7.375000000    -0.637000000     2.063000000
C     5.594000000     0.440000000     2.422000000
O     5.640000000     0.918000000     1.137000000
C     5.459000000     0.032000000     0.088000000
C     6.269000000     0.216000000    -1.015000000
H     7.052000000     0.968000000    -1.067000000
C     5.887000000    -0.480000000    -2.199000000
O     6.589000000    -0.175000000    -3.310000000
C     5.986000000     0.091000000    -4.547000000
C     4.828000000     0.934000000    -4.619000000
H     4.531000000     1.337000000    -3.654000000
C     6.418000000    -0.492000000    -5.697000000
H     7.239000000    -1.203000000    -5.757000000
C     5.791000000    -0.205000000    -6.856000000
H     6.312000000    -0.580000000    -7.734000000
C     4.592000000     0.514000000    -6.882000000
H     4.154000000     0.735000000    -7.852000000
C     4.111000000     1.095000000    -5.762000000
O     2.959000000     1.953000000    -5.849000000
C     1.817000000     1.874000000    -5.141000000
C     1.265000000     3.029000000    -4.644000000
H     1.713000000     4.002000000    -4.825000000
C     0.073000000     3.025000000    -3.984000000
O    -0.334000000     4.206000000    -3.399000000
C    -1.596000000     4.830000000    -3.386000000
C    -2.171000000     5.252000000    -4.550000000
H    -1.525000000     5.195000000    -5.423000000
C    -3.451000000     5.898000000    -4.577000000
H    -3.868000000     6.095000000    -5.562000000
C    -4.257000000     5.971000000    -3.419000000
H    -5.295000000     6.291000000    -3.367000000
C    -3.635000000     5.501000000    -2.190000000
C    -2.310000000     4.965000000    -2.198000000
H    -1.850000000     4.513000000    -1.323000000
C    -0.328000000     2.237000000     1.426000000
H    -0.846000000     2.756000000     2.228000000
C    -0.805000000     0.951000000     1.222000000
H    -1.643000000     0.573000000     1.802000000
C    -0.246000000     0.229000000     0.144000000
C    -0.746000000    -1.155000000    -0.087000000
H    -1.735000000    -1.430000000     0.286000000
H    -0.742000000    -1.515000000    -1.117000000
H    -0.027000000    -1.820000000     0.396000000
C     0.853000000     0.729000000    -0.552000000
H     1.274000000     0.119000000    -1.347000000
C     1.415000000     1.936000000    -0.204000000
H     2.308000000     2.332000000    -0.681000000
C     0.831000000     2.714000000     0.757000000
C     1.299000000     4.016000000     1.138000000
O     2.092000000     4.522000000     0.375000000
O     0.968000000     4.661000000     2.157000000
O     4.348000000     5.986000000     1.015000000
H     3.642000000     5.394000000     0.756000000
H     4.040000000     6.385000000     1.829000000
O     4.003000000     4.001000000    -2.231000000
H     3.222000000     4.035000000    -1.678000000
H     3.802000000     4.585000000    -2.963000000
O     6.266000000     3.982000000     2.390000000
H     7.034000000     3.450000000     2.599000000
H     5.758000000     3.441000000     1.786000000
O     1.676000000     6.373000000    -1.546000000
H     0.857000000     6.199000000    -2.011000000
H     1.824000000     5.587000000    -1.020000000
O    -0.163000000     7.473000000     5.897000000
H    -0.300000000     8.127000000     5.212000000
H     0.321000000     6.770000000     5.464000000
O     0.920000000     7.296000000     1.346000000
H     0.814000000     6.368000000     1.554000000
H     1.665000000     7.324000000     0.745000000
O     4.807000000     5.261000000     4.272000000
H     5.198000000     4.830000000     3.512000000
H     5.416000000     5.082000000     4.988000000
O     6.585000000     6.831000000    -0.089000000
H     5.725000000     6.644000000     0.288000000
H     6.401000000     7.071000000    -0.997000000
O     3.676000000     6.111000000    -4.435000000
H     3.263000000     6.512000000    -5.200000000
H     4.607000000     6.309000000    -4.535000000
O     3.286000000     8.422000000    -2.159000000
H     2.670000000     7.697000000    -2.053000000
H     4.146000000     8.002000000    -2.185000000
O     6.094000000     7.578000000     5.307000000
H     5.413000000     7.109000000     4.826000000
H     6.908000000     7.342000000     4.862000000
O     3.371000000     9.538000000     5.714000000
H     3.275000000     9.552000000     4.762000000
H     4.097000000     8.935000000     5.873000000
O     6.418000000     3.669000000    -0.941000000
H     6.755000000     4.564000000    -0.912000000
H     5.548000000     3.754000000    -1.332000000
O     1.976000000     5.014000000     7.449000000
H     1.163000000     5.375000000     7.802000000
H     1.822000000     4.952000000     6.506000000
O     0.295000000     9.345000000     3.920000000
H     0.206000000     8.856000000     3.102000000
H     0.582000000    10.217000000     3.648000000
O     1.834000000     5.045000000     4.599000000
H     2.784000000     5.138000000     4.520000000
H     1.535000000     4.872000000     3.707000000
O     7.120000000     6.731000000     2.645000000
H     6.590000000     5.942000000     2.752000000
H     6.931000000     7.029000000     1.755000000
O     3.465000000     8.994000000     3.259000000
H     2.610000000     8.737000000     2.915000000
H     3.994000000     9.168000000     2.481000000
O    -1.177000000     9.491000000     0.940000000
H    -0.423000000    10.046000000     0.740000000
H    -0.825000000     8.600000000     0.941000000
