218
-1451.64241
C     1.925000000     0.249000000     4.881000000
H     2.539000000    -0.637000000     4.739000000
C     0.532000000     0.112000000     4.835000000
C    -0.298000000     1.201000000     5.109000000
H    -1.375000000     1.283000000     4.985000000
C    -0.163000000    -1.114000000     4.210000000
O     0.629000000    -2.355000000     4.487000000
H    -0.263000000    -0.891000000     3.138000000
O    -1.553000000    -1.228000000     4.685000000
C    -2.357000000    -1.553000000     3.663000000
C    -3.123000000    -0.531000000     3.099000000
H    -3.073000000     0.478000000     3.501000000
C    -3.993000000    -0.871000000     2.057000000
O    -4.680000000     0.201000000     1.522000000
C    -4.150000000    -2.206000000     1.532000000
C    -5.041000000    -2.441000000     0.325000000
H    -5.081000000    -3.529000000     0.244000000
C    -4.360000000    -2.089000000    -0.954000000
C    -3.621000000    -3.045000000    -1.694000000
H    -3.622000000    -4.062000000    -1.309000000
H    -5.965000000    -1.871000000     0.438000000
C    -3.332000000    -3.194000000     2.205000000
H    -3.299000000    -4.206000000     1.809000000
C    -2.485000000    -2.866000000     3.258000000
C    -1.574000000    -4.013000000     3.772000000
H    -1.990000000    -5.015000000     3.647000000
H    -1.318000000    -3.805000000     4.813000000
C    -0.247000000    -4.006000000     3.038000000
C    -0.028000000    -4.676000000     1.858000000
H    -0.838000000    -5.313000000     1.511000000
C     0.766000000    -3.220000000     3.479000000
C     2.005000000    -3.103000000     2.811000000
H     2.723000000    -2.368000000     3.165000000
C     2.240000000    -3.775000000     1.595000000
O     3.382000000    -3.340000000     0.896000000
C     3.133000000    -2.560000000    -0.348000000
C     4.205000000    -1.506000000    -0.601000000
C     4.726000000    -1.202000000    -1.881000000
H     4.305000000    -1.739000000    -2.727000000
C     4.715000000    -0.820000000     0.524000000
H     4.364000000    -1.067000000     1.523000000
O     2.993000000    -3.498000000    -1.509000000
H     2.180000000    -2.040000000    -0.168000000
C     1.192000000    -4.596000000     1.105000000
C     1.268000000    -5.377000000    -0.216000000
H     0.600000000    -6.227000000    -0.063000000
H     2.281000000    -5.752000000    -0.374000000
C     0.861000000    -4.526000000    -1.367000000
C    -0.444000000    -4.639000000    -1.952000000
H    -1.207000000    -5.282000000    -1.521000000
C     1.741000000    -3.692000000    -2.011000000
C     1.417000000    -3.019000000    -3.214000000
H     2.149000000    -2.384000000    -3.708000000
C     0.122000000    -3.077000000    -3.629000000
O    -0.152000000    -2.208000000    -4.683000000
C    -0.821000000    -1.042000000    -4.202000000
C    -0.175000000     0.280000000    -4.675000000
C     0.990000000     0.390000000    -5.522000000
H     1.335000000    -0.542000000    -5.962000000
C    -0.753000000     1.482000000    -4.190000000
H    -1.645000000     1.347000000    -3.584000000
O    -2.226000000    -1.122000000    -4.448000000
H    -0.728000000    -0.901000000    -3.115000000
C    -0.840000000    -3.928000000    -3.077000000
C    -2.244000000    -3.915000000    -3.549000000
H    -2.743000000    -4.858000000    -3.316000000
H    -2.345000000    -3.848000000    -4.634000000
C    -2.999000000    -2.773000000    -2.867000000
C    -2.997000000    -1.449000000    -3.309000000
C    -3.755000000    -0.488000000    -2.647000000
H    -3.675000000     0.518000000    -3.053000000
C    -4.472000000    -0.795000000    -1.530000000
O    -4.936000000     0.251000000    -0.823000000
C    -4.279000000     0.833000000     0.301000000
H    -3.214000000     0.683000000     0.073000000
C    -4.363000000     2.366000000     0.376000000
C    -4.005000000     3.010000000     1.572000000
H    -3.689000000     2.369000000     2.391000000
C    -4.442000000     3.175000000    -0.767000000
H    -4.539000000     2.636000000    -1.706000000
C    -4.427000000     4.565000000    -0.649000000
O    -4.688000000     5.367000000    -1.733000000
C    -4.091000000     5.190000000     0.549000000
H    -3.978000000     6.271000000     0.578000000
C    -3.812000000     4.381000000     1.693000000
O    -3.604000000     5.065000000     2.871000000
C    -3.279000000     4.634000000     4.112000000
C    -1.975000000     4.214000000     4.401000000
H    -1.240000000     4.157000000     3.603000000
C    -4.278000000     4.439000000     5.023000000
H    -5.290000000     4.735000000     4.758000000
C    -3.959000000     3.963000000     6.295000000
H    -4.712000000     3.711000000     7.038000000
C    -2.691000000     3.684000000     6.669000000
H    -2.485000000     3.294000000     7.662000000
C    -1.681000000     3.771000000     5.714000000
O    -0.372000000     3.504000000     6.014000000
C     0.318000000     2.451000000     5.491000000
C     1.721000000     2.459000000     5.788000000
H     2.118000000     3.357000000     6.255000000
C     2.455000000     1.435000000     5.375000000
O     3.801000000     1.599000000     5.495000000
C     4.805000000     0.942000000     4.833000000
C     5.055000000     1.194000000     3.490000000
H     4.490000000     1.926000000     2.919000000
C     5.526000000    -0.034000000     5.560000000
H     5.392000000    -0.158000000     6.632000000
C     6.557000000    -0.723000000     4.886000000
H     7.258000000    -1.350000000     5.430000000
C     6.815000000    -0.472000000     3.525000000
H     7.638000000    -1.023000000     3.077000000
C     6.065000000     0.471000000     2.821000000
O     6.334000000     0.793000000     1.494000000
C     5.752000000     0.123000000     0.397000000
C     6.309000000     0.372000000    -0.873000000
H     7.161000000     1.042000000    -0.953000000
C     5.788000000    -0.352000000    -2.016000000
O     6.324000000    -0.078000000    -3.273000000
C     5.661000000    -0.037000000    -4.528000000
C     4.421000000     0.662000000    -4.714000000
H     3.992000000     1.213000000    -3.881000000
C     6.251000000    -0.606000000    -5.618000000
H     7.132000000    -1.224000000    -5.470000000
C     5.683000000    -0.437000000    -6.866000000
H     6.242000000    -0.843000000    -7.706000000
C     4.481000000     0.139000000    -7.103000000
H     4.071000000     0.300000000    -8.096000000
C     3.912000000     0.752000000    -5.973000000
O     2.910000000     1.645000000    -6.215000000
C     1.665000000     1.583000000    -5.561000000
C     1.015000000     2.740000000    -5.113000000
H     1.479000000     3.704000000    -5.302000000
C    -0.160000000     2.724000000    -4.391000000
O    -0.669000000     3.916000000    -3.950000000
C    -1.962000000     4.277000000    -4.040000000
C    -2.740000000     3.909000000    -5.158000000
H    -2.234000000     3.438000000    -5.997000000
C    -4.112000000     4.150000000    -5.183000000
H    -4.670000000     4.044000000    -6.110000000
C    -4.751000000     4.729000000    -4.084000000
H    -5.836000000     4.770000000    -4.138000000
C    -4.050000000     5.096000000    -2.951000000
C    -2.653000000     4.825000000    -2.958000000
H    -2.058000000     4.953000000    -2.057000000
C    -0.470000000     2.228000000     1.190000000
H    -0.826000000     2.777000000     2.058000000
C    -0.707000000     0.928000000     1.094000000
H    -1.174000000     0.346000000     1.884000000
C    -0.266000000     0.165000000     0.006000000
C    -0.618000000    -1.233000000    -0.192000000
H     0.177000000    -1.920000000     0.107000000
H    -1.435000000    -1.530000000     0.470000000
H    -1.108000000    -1.334000000    -1.162000000
C     0.273000000     0.861000000    -1.036000000
H     0.479000000     0.311000000    -1.950000000
C     0.599000000     2.159000000    -0.957000000
H     1.047000000     2.608000000    -1.840000000
C     0.225000000     2.897000000     0.173000000
C     0.639000000     4.303000000     0.324000000
O     1.496000000     4.809000000    -0.443000000
O     0.216000000     4.861000000     1.376000000
O     1.785000000     9.857000000     1.302000000
H     1.664000000     8.947000000     1.573000000
H     2.720000000    10.021000000     1.424000000
O     3.406000000     4.857000000     1.304000000
H     2.659000000     4.952000000     0.712000000
H     4.135000000     5.263000000     0.836000000
O     4.620000000     8.006000000     1.368000000
H     5.433000000     7.504000000     1.304000000
H     4.423000000     8.258000000     0.466000000
O    -2.201000000     9.063000000     1.083000000
H    -1.524000000     9.405000000     0.499000000
H    -1.754000000     8.395000000     1.603000000
O    -0.992000000     7.425000000    -4.552000000
H    -1.223000000     8.301000000    -4.244000000
H    -0.469000000     7.053000000    -3.842000000
O    -2.291000000     7.865000000    -1.971000000
H    -1.343000000     7.731000000    -1.971000000
H    -2.656000000     6.988000000    -1.853000000
O    -1.489000000     8.195000000     4.882000000
H    -1.590000000     8.080000000     3.937000000
H    -0.579000000     7.956000000     5.057000000
O     3.647000000     4.258000000    -1.655000000
H     3.618000000     4.397000000    -2.602000000
H     2.767000000     4.484000000    -1.353000000
O     0.877000000     7.113000000    -2.272000000
H     1.090000000     6.416000000    -1.651000000
H     1.663000000     7.201000000    -2.811000000
O    -1.352000000     6.711000000     2.426000000
H    -0.869000000     5.974000000     2.053000000
H    -2.117000000     6.311000000     2.839000000
O     5.528000000     4.511000000     3.029000000
H     4.816000000     4.377000000     2.403000000
H     6.054000000     5.213000000     2.647000000
O     6.360000000     4.520000000    -1.265000000
H     5.412000000     4.420000000    -1.180000000
H     6.476000000     5.396000000    -1.636000000
O     3.549000000     9.097000000    -1.317000000
H     2.914000000     9.081000000    -2.033000000
H     3.934000000     9.973000000    -1.358000000
O     3.661000000     6.631000000    -3.830000000
H     3.852000000     7.547000000    -4.029000000
H     3.266000000     6.289000000    -4.632000000
O     0.714000000     6.754000000     5.309000000
H     1.186000000     6.188000000     4.698000000
H     0.430000000     6.167000000     6.009000000
O     2.076000000     5.062000000     3.561000000
H     2.745000000     4.895000000     2.898000000
H     1.246000000     4.931000000     3.102000000
O     1.328000000     7.389000000     1.969000000
H     0.656000000     7.541000000     2.632000000
H     1.118000000     6.528000000     1.607000000
O     3.854000000     7.161000000     3.889000000
H     3.120000000     6.598000000     4.136000000
H     3.899000000     7.090000000     2.935000000
O    -0.111000000     9.352000000    -0.720000000
H     0.656000000     9.247000000    -0.156000000
H     0.114000000     8.878000000    -1.521000000
