218
-1454.44405
C     2.638000000    -0.766000000     3.959000000
H     3.102000000    -1.704000000     3.665000000
C     1.256000000    -0.614000000     4.054000000
C     0.777000000     0.699000000     4.282000000
H    -0.308000000     0.755000000     4.252000000
C     0.267000000    -1.753000000     3.586000000
O     0.851000000    -3.078000000     3.662000000
H     0.074000000    -1.524000000     2.528000000
O    -0.875000000    -1.765000000     4.405000000
C    -2.108000000    -1.740000000     3.702000000
C    -2.857000000    -0.630000000     3.567000000
H    -2.673000000     0.295000000     4.107000000
C    -3.929000000    -0.660000000     2.713000000
O    -4.612000000     0.574000000     2.473000000
C    -4.259000000    -1.784000000     1.949000000
C    -5.356000000    -1.828000000     0.891000000
H    -5.694000000    -2.853000000     0.724000000
C    -4.723000000    -1.226000000    -0.391000000
C    -4.324000000    -2.112000000    -1.389000000
H    -4.579000000    -3.168000000    -1.348000000
H    -6.317000000    -1.335000000     1.053000000
C    -3.560000000    -2.991000000     2.181000000
H    -3.821000000    -3.847000000     1.564000000
C    -2.431000000    -2.961000000     3.012000000
C    -1.666000000    -4.259000000     3.137000000
H    -2.389000000    -5.066000000     2.999000000
H    -1.264000000    -4.337000000     4.149000000
C    -0.534000000    -4.427000000     2.162000000
C    -0.649000000    -4.966000000     0.892000000
H    -1.620000000    -5.330000000     0.566000000
C     0.673000000    -3.831000000     2.561000000
C     1.722000000    -3.741000000     1.704000000
H     2.661000000    -3.321000000     2.055000000
C     1.638000000    -4.228000000     0.424000000
O     2.791000000    -4.147000000    -0.366000000
C     2.728000000    -3.084000000    -1.393000000
C     4.122000000    -2.372000000    -1.549000000
C     4.186000000    -1.315000000    -2.438000000
H     3.387000000    -1.155000000    -3.157000000
C     5.092000000    -2.537000000    -0.579000000
H     5.087000000    -3.398000000     0.085000000
O     2.328000000    -3.579000000    -2.631000000
H     1.972000000    -2.347000000    -1.083000000
C     0.444000000    -4.871000000     0.013000000
C     0.348000000    -5.403000000    -1.444000000
H    -0.423000000    -6.176000000    -1.469000000
H     1.321000000    -5.793000000    -1.749000000
C     0.020000000    -4.305000000    -2.330000000
C    -1.317000000    -4.158000000    -2.650000000
H    -2.042000000    -4.848000000    -2.226000000
C     1.017000000    -3.493000000    -2.967000000
C     0.653000000    -2.486000000    -3.836000000
H     1.458000000    -2.023000000    -4.402000000
C    -0.735000000    -2.169000000    -4.049000000
O    -1.025000000    -1.077000000    -4.755000000
C    -1.431000000     0.084000000    -3.962000000
C    -0.773000000     1.384000000    -4.388000000
C     0.419000000     1.352000000    -5.144000000
H     0.805000000     0.456000000    -5.624000000
C    -1.236000000     2.567000000    -3.892000000
H    -2.197000000     2.587000000    -3.384000000
O    -2.902000000     0.123000000    -3.896000000
H    -1.050000000    -0.176000000    -2.964000000
C    -1.693000000    -3.071000000    -3.459000000
C    -3.261000000    -2.844000000    -3.537000000
H    -3.580000000    -3.878000000    -3.394000000
H    -3.410000000    -2.590000000    -4.589000000
C    -3.749000000    -1.698000000    -2.576000000
C    -3.565000000    -0.363000000    -2.767000000
C    -4.023000000     0.595000000    -1.820000000
H    -3.877000000     1.665000000    -1.948000000
C    -4.527000000     0.152000000    -0.641000000
O    -5.071000000     1.015000000     0.233000000
C    -4.174000000     1.296000000     1.346000000
H    -3.214000000     0.829000000     1.079000000
C    -4.043000000     2.775000000     1.776000000
C    -3.782000000     3.183000000     3.110000000
H    -3.833000000     2.413000000     3.876000000
C    -4.028000000     3.782000000     0.776000000
H    -4.185000000     3.518000000    -0.267000000
C    -3.781000000     5.159000000     1.050000000
O    -3.555000000     6.131000000     0.113000000
C    -3.479000000     5.473000000     2.386000000
H    -3.062000000     6.461000000     2.563000000
C    -3.629000000     4.554000000     3.426000000
O    -3.260000000     4.986000000     4.694000000
C    -2.333000000     4.263000000     5.448000000
C    -1.068000000     4.019000000     4.899000000
H    -0.857000000     4.354000000     3.887000000
C    -2.555000000     3.711000000     6.705000000
H    -3.480000000     3.931000000     7.232000000
C    -1.663000000     2.826000000     7.317000000
H    -1.852000000     2.383000000     8.291000000
C    -0.458000000     2.605000000     6.702000000
H     0.308000000     2.115000000     7.297000000
C    -0.150000000     3.243000000     5.542000000
O     1.133000000     3.029000000     5.020000000
C     1.607000000     1.739000000     4.694000000
C     2.939000000     1.536000000     4.539000000
H     3.656000000     2.341000000     4.677000000
C     3.475000000     0.300000000     4.187000000
O     4.865000000     0.140000000     4.115000000
C     5.597000000    -0.892000000     3.566000000
C     6.065000000    -0.800000000     2.254000000
H     5.852000000     0.085000000     1.659000000
C     6.033000000    -1.962000000     4.361000000
H     5.625000000    -2.151000000     5.351000000
C     6.737000000    -3.021000000     3.763000000
H     6.885000000    -3.921000000     4.354000000
C     7.195000000    -2.924000000     2.443000000
H     7.569000000    -3.810000000     1.936000000
C     6.799000000    -1.838000000     1.635000000
O     7.078000000    -1.835000000     0.340000000
C     6.167000000    -1.720000000    -0.554000000
C     6.331000000    -0.676000000    -1.480000000
H     7.154000000     0.032000000    -1.426000000
C     5.294000000    -0.396000000    -2.343000000
O     5.387000000     0.739000000    -3.181000000
C     4.777000000     0.744000000    -4.476000000
C     3.690000000     1.572000000    -4.672000000
H     3.273000000     2.175000000    -3.869000000
C     5.386000000     0.046000000    -5.517000000
H     6.318000000    -0.506000000    -5.420000000
C     4.736000000     0.021000000    -6.755000000
H     5.139000000    -0.525000000    -7.604000000
C     3.728000000     0.954000000    -6.999000000
H     3.208000000     0.998000000    -7.952000000
C     3.244000000     1.770000000    -5.942000000
O     2.097000000     2.564000000    -6.210000000
C     1.066000000     2.547000000    -5.395000000
C     0.572000000     3.749000000    -4.997000000
H     1.210000000     4.609000000    -5.180000000
C    -0.524000000     3.769000000    -4.173000000
O    -0.912000000     4.992000000    -3.679000000
C    -2.109000000     5.314000000    -3.152000000
C    -3.274000000     5.291000000    -3.955000000
H    -3.122000000     5.197000000    -5.027000000
C    -4.516000000     5.513000000    -3.354000000
H    -5.328000000     5.598000000    -4.072000000
C    -4.645000000     5.898000000    -2.019000000
H    -5.638000000     6.223000000    -1.718000000
C    -3.482000000     5.712000000    -1.211000000
C    -2.196000000     5.443000000    -1.766000000
H    -1.345000000     5.254000000    -1.117000000
C     0.302000000     2.185000000     0.909000000
H     0.093000000     2.825000000     1.763000000
C    -0.341000000     0.947000000     0.987000000
H    -0.983000000     0.729000000     1.837000000
C    -0.192000000    -0.001000000    -0.026000000
C    -1.014000000    -1.219000000    -0.022000000
H    -2.026000000    -1.038000000     0.346000000
H    -1.057000000    -1.545000000    -1.063000000
H    -0.501000000    -1.991000000     0.556000000
C     0.604000000     0.275000000    -1.125000000
H     0.872000000    -0.477000000    -1.864000000
C     1.221000000     1.518000000    -1.173000000
H     1.811000000     1.686000000    -2.070000000
C     1.146000000     2.540000000    -0.169000000
C     1.853000000     3.893000000    -0.261000000
O     2.447000000     4.189000000    -1.311000000
O     1.885000000     4.666000000     0.695000000
O     0.955000000     6.687000000    -1.402000000
H     1.632000000     6.011000000    -1.352000000
H     1.291000000     7.401000000    -0.861000000
O     5.815000000     3.586000000     1.120000000
H     5.051000000     3.767000000     1.668000000
H     5.446000000     3.291000000     0.287000000
O     1.216000000     9.276000000    -0.300000000
H     1.017000000     9.989000000    -0.907000000
H     0.877000000     9.577000000     0.543000000
O     4.699000000     2.913000000    -1.252000000
H     3.821000000     3.285000000    -1.340000000
H     4.564000000     1.967000000    -1.305000000
O     3.610000000     5.620000000    -3.441000000
H     2.945000000     5.102000000    -2.989000000
H     3.200000000     5.868000000    -4.269000000
O     3.295000000     7.333000000     3.204000000
H     2.356000000     7.401000000     3.033000000
H     3.670000000     7.043000000     2.372000000
O     8.030000000     6.173000000    -3.279000000
H     7.135000000     5.886000000    -3.099000000
H     8.438000000     6.241000000    -2.415000000
O     6.893000000     8.925000000    -0.842000000
H     7.796000000     8.936000000    -1.161000000
H     6.710000000     8.000000000    -0.675000000
O    -0.379000000     6.584000000     1.519000000
H     0.263000000     5.943000000     1.215000000
H    -1.162000000     6.406000000     0.998000000
O     8.225000000     3.264000000    -0.349000000
H     7.502000000     3.655000000     0.142000000
H     8.550000000     2.565000000     0.218000000
O     3.626000000     3.909000000     2.700000000
H     3.398000000     4.407000000     3.485000000
H     2.913000000     4.089000000     2.087000000
O     6.828000000     6.189000000    -0.132000000
H     6.551000000     5.643000000    -0.867000000
H     6.266000000     5.916000000     0.594000000
O     4.346000000     9.733000000     2.593000000
H     4.119000000     8.805000000     2.537000000
H     4.012000000    10.011000000     3.446000000
O     7.410000000     4.599000000     3.212000000
H     6.847000000     4.183000000     2.559000000
H     7.078000000     5.494000000     3.281000000
O     0.903000000     8.269000000    -4.090000000
H     1.392000000     9.089000000    -4.017000000
H     0.961000000     7.877000000    -3.219000000
O    -1.503000000     8.723000000    -2.272000000
H    -1.114000000     9.595000000    -2.202000000
H    -0.766000000     8.123000000    -2.155000000
O     5.928000000     4.889000000    -2.441000000
H     5.092000000     5.263000000    -2.720000000
H     5.696000000     4.049000000    -2.046000000
O     0.385000000     8.432000000     3.188000000
H     0.603000000     9.291000000     2.826000000
H     0.065000000     7.931000000     2.438000000
O     3.967000000     6.362000000     0.586000000
H     3.261000000     5.754000000     0.370000000
H     4.213000000     6.750000000    -0.254000000
