218
-1465.84463
C     2.438000000    -0.540000000     4.719000000
H     2.926000000    -1.466000000     4.428000000
C     1.037000000    -0.478000000     4.641000000
C     0.435000000     0.726000000     5.022000000
H    -0.619000000     0.908000000     4.828000000
C     0.257000000    -1.615000000     3.986000000
O     0.942000000    -2.787000000     4.088000000
H     0.164000000    -1.387000000     2.914000000
O    -1.001000000    -1.751000000     4.550000000
C    -2.072000000    -1.819000000     3.658000000
C    -2.894000000    -0.721000000     3.422000000
H    -2.609000000     0.165000000     3.984000000
C    -3.898000000    -0.836000000     2.462000000
O    -4.530000000     0.349000000     2.191000000
C    -4.140000000    -1.952000000     1.720000000
C    -5.077000000    -2.079000000     0.491000000
H    -5.278000000    -3.141000000     0.333000000
C    -4.413000000    -1.580000000    -0.788000000
C    -3.935000000    -2.576000000    -1.687000000
H    -3.944000000    -3.620000000    -1.385000000
H    -6.018000000    -1.552000000     0.663000000
C    -3.355000000    -3.068000000     2.004000000
H    -3.687000000    -4.040000000     1.648000000
C    -2.267000000    -3.032000000     2.941000000
C    -1.459000000    -4.302000000     3.234000000
H    -2.049000000    -5.111000000     2.797000000
H    -1.265000000    -4.500000000     4.290000000
C    -0.205000000    -4.206000000     2.421000000
C    -0.059000000    -4.826000000     1.130000000
H    -0.834000000    -5.490000000     0.757000000
C     0.919000000    -3.470000000     2.857000000
C     2.137000000    -3.366000000     2.146000000
H     3.037000000    -2.891000000     2.526000000
C     2.200000000    -4.021000000     0.905000000
O     3.276000000    -3.618000000     0.156000000
C     3.053000000    -2.642000000    -0.932000000
C     4.179000000    -1.638000000    -0.939000000
C     4.535000000    -0.976000000    -2.141000000
H     3.902000000    -1.186000000    -2.999000000
C     4.838000000    -1.297000000     0.232000000
H     4.437000000    -1.737000000     1.141000000
O     2.854000000    -3.301000000    -2.206000000
H     2.169000000    -2.126000000    -0.529000000
C     1.089000000    -4.624000000     0.375000000
C     1.073000000    -5.299000000    -1.018000000
H     0.431000000    -6.181000000    -1.066000000
H     2.020000000    -5.811000000    -1.202000000
C     0.661000000    -4.335000000    -2.063000000
C    -0.671000000    -4.235000000    -2.491000000
H    -1.463000000    -4.862000000    -2.090000000
C     1.590000000    -3.488000000    -2.715000000
C     1.170000000    -2.558000000    -3.686000000
H     1.958000000    -2.002000000    -4.188000000
C    -0.211000000    -2.426000000    -4.004000000
O    -0.506000000    -1.460000000    -4.868000000
C    -1.033000000    -0.333000000    -4.156000000
C    -0.570000000     1.012000000    -4.628000000
C     0.641000000     1.131000000    -5.357000000
H     1.281000000     0.252000000    -5.374000000
C    -1.290000000     2.245000000    -4.443000000
H    -2.247000000     2.220000000    -3.928000000
O    -2.430000000    -0.407000000    -4.139000000
H    -0.645000000    -0.404000000    -3.129000000
C    -1.138000000    -3.248000000    -3.426000000
C    -2.677000000    -3.190000000    -3.787000000
H    -3.246000000    -4.117000000    -3.686000000
H    -2.817000000    -2.841000000    -4.812000000
C    -3.283000000    -2.219000000    -2.848000000
C    -3.108000000    -0.837000000    -3.070000000
C    -3.690000000     0.116000000    -2.242000000
H    -3.663000000     1.157000000    -2.551000000
C    -4.322000000    -0.261000000    -1.079000000
O    -4.828000000     0.631000000    -0.207000000
C    -4.102000000     1.023000000     0.973000000
H    -3.103000000     0.587000000     0.825000000
C    -3.972000000     2.564000000     1.175000000
C    -3.663000000     3.077000000     2.460000000
H    -3.524000000     2.390000000     3.292000000
C    -4.046000000     3.420000000     0.061000000
H    -4.290000000     3.031000000    -0.924000000
C    -3.991000000     4.817000000     0.264000000
O    -4.112000000     5.756000000    -0.793000000
C    -3.619000000     5.287000000     1.525000000
H    -3.635000000     6.335000000     1.810000000
C    -3.503000000     4.427000000     2.621000000
O    -3.252000000     4.988000000     3.881000000
C    -2.755000000     4.290000000     4.986000000
C    -1.454000000     3.834000000     4.838000000
H    -0.973000000     3.815000000     3.864000000
C    -3.481000000     4.148000000     6.126000000
H    -4.535000000     4.407000000     6.181000000
C    -2.820000000     3.577000000     7.185000000
H    -3.260000000     3.559000000     8.179000000
C    -1.463000000     3.160000000     7.084000000
H    -0.975000000     2.684000000     7.930000000
C    -0.751000000     3.263000000     5.908000000
O     0.580000000     2.972000000     5.945000000
C     1.146000000     1.763000000     5.600000000
C     2.542000000     1.572000000     5.764000000
H     3.123000000     2.375000000     6.210000000
C     3.178000000     0.508000000     5.301000000
O     4.502000000     0.333000000     5.399000000
C     5.293000000    -0.407000000     4.521000000
C     5.546000000     0.036000000     3.220000000
H     5.187000000     1.028000000     2.961000000
C     5.755000000    -1.657000000     4.987000000
H     5.577000000    -1.936000000     6.023000000
C     6.572000000    -2.423000000     4.136000000
H     7.070000000    -3.290000000     4.563000000
C     6.940000000    -1.966000000     2.883000000
H     7.536000000    -2.561000000     2.196000000
C     6.396000000    -0.718000000     2.432000000
O     6.754000000    -0.214000000     1.257000000
C     5.964000000    -0.429000000     0.150000000
C     6.312000000     0.157000000    -1.057000000
H     7.237000000     0.728000000    -1.075000000
C     5.548000000    -0.039000000    -2.201000000
O     5.725000000     0.746000000    -3.352000000
C     5.035000000     0.620000000    -4.597000000
C     4.088000000     1.595000000    -4.908000000
H     3.884000000     2.352000000    -4.156000000
C     5.251000000    -0.470000000    -5.486000000
H     5.963000000    -1.271000000    -5.305000000
C     4.636000000    -0.439000000    -6.765000000
H     4.824000000    -1.181000000    -7.537000000
C     3.682000000     0.527000000    -7.055000000
H     3.072000000     0.448000000    -7.950000000
C     3.393000000     1.536000000    -6.154000000
O     2.376000000     2.385000000    -6.427000000
C     1.103000000     2.320000000    -5.886000000
C     0.376000000     3.493000000    -5.626000000
H     0.716000000     4.478000000    -5.935000000
C    -0.772000000     3.429000000    -4.832000000
O    -1.414000000     4.615000000    -4.646000000
C    -2.700000000     4.808000000    -4.069000000
C    -3.900000000     4.660000000    -4.829000000
H    -3.879000000     4.461000000    -5.897000000
C    -5.103000000     4.759000000    -4.193000000
H    -5.967000000     4.670000000    -4.846000000
C    -5.212000000     5.118000000    -2.827000000
H    -6.159000000     5.314000000    -2.332000000
C    -4.025000000     5.395000000    -2.117000000
C    -2.803000000     5.159000000    -2.706000000
H    -1.916000000     5.232000000    -2.082000000
C     1.064000000     2.383000000     1.065000000
H     0.929000000     3.067000000     1.898000000
C     0.292000000     1.203000000     1.078000000
H    -0.528000000     1.095000000     1.782000000
C     0.449000000     0.294000000     0.038000000
C    -0.491000000    -1.030000000    -0.086000000
H    -1.359000000    -0.800000000     0.535000000
H    -0.786000000    -1.199000000    -1.124000000
H    -0.038000000    -1.929000000     0.335000000
C     1.408000000     0.480000000    -0.870000000
H     1.504000000    -0.191000000    -1.720000000
C     2.293000000     1.567000000    -0.863000000
H     2.987000000     1.740000000    -1.681000000
C     2.130000000     2.514000000     0.133000000
C     3.038000000     3.756000000     0.133000000
O     3.457000000     4.231000000    -0.916000000
O     3.120000000     4.456000000     1.139000000
O    -0.103000000     7.232000000    -2.932000000
H     0.613000000     6.610000000    -3.059000000
H    -0.487000000     7.335000000    -3.803000000
O     6.373000000     3.960000000     2.361000000
H     6.327000000     4.337000000     1.483000000
H     5.515000000     4.141000000     2.745000000
O     3.071000000     7.371000000     0.534000000
H     3.094000000     6.415000000     0.488000000
H     2.998000000     7.564000000     1.468000000
O    -0.497000000     7.135000000    -0.123000000
H    -0.663000000     8.072000000    -0.029000000
H    -0.317000000     7.016000000    -1.056000000
O     5.563000000     4.595000000    -2.628000000
H     5.200000000     4.740000000    -3.501000000
H     4.799000000     4.580000000    -2.050000000
O     5.718000000     8.017000000    -0.421000000
H     6.310000000     7.266000000    -0.381000000
H     5.017000000     7.802000000     0.194000000
O     1.561000000     4.987000000    -2.836000000
H     2.278000000     4.586000000    -2.344000000
H     0.939000000     4.273000000    -2.979000000
O     5.826000000     5.194000000     0.079000000
H     4.924000000     4.914000000     0.235000000
H     5.957000000     5.067000000    -0.860000000
O     4.348000000     5.096000000    -5.159000000
H     4.336000000     6.040000000    -5.001000000
H     3.521000000     4.918000000    -5.607000000
O     1.963000000     9.346000000    -0.687000000
H     2.221000000     8.559000000    -0.207000000
H     2.522000000     9.346000000    -1.465000000
O     7.489000000     2.324000000     4.402000000
H     6.890000000     2.321000000     5.149000000
H     7.030000000     2.827000000     3.730000000
O     7.920000000     6.365000000    -1.771000000
H     7.971000000     7.148000000    -2.320000000
H     7.156000000     5.892000000    -2.100000000
O     9.108000000     2.970000000     1.693000000
H     8.248000000     3.304000000     1.946000000
H     9.697000000     3.716000000     1.806000000
O     3.826000000     4.451000000     3.574000000
H     3.605000000     4.428000000     2.643000000
H     2.979000000     4.455000000     4.021000000
O     0.697000000     5.989000000     2.243000000
H     0.213000000     6.260000000     1.463000000
H     1.441000000     5.493000000     1.903000000
O     8.364000000     6.305000000     1.198000000
H     8.058000000     6.147000000     0.305000000
H     8.614000000     7.229000000     1.205000000
O     7.715000000     2.658000000    -2.914000000
H     7.021000000     2.119000000    -3.294000000
H     7.261000000     3.430000000    -2.577000000
O     5.869000000     4.822000000     5.671000000
H     6.596000000     5.396000000     5.432000000
H     5.194000000     5.005000000     5.018000000
O     4.159000000     9.112000000    -2.655000000
H     4.767000000     8.697000000    -2.044000000
H     4.205000000    10.045000000    -2.443000000
