218
-1454.11285
C     2.543000000    -1.031000000     4.381000000
H     2.889000000    -2.042000000     4.182000000
C     1.134000000    -0.797000000     4.385000000
C     0.710000000     0.429000000     4.788000000
H    -0.363000000     0.528000000     4.930000000
C     0.206000000    -1.814000000     3.670000000
O     0.788000000    -3.193000000     3.625000000
H     0.147000000    -1.459000000     2.631000000
O    -1.075000000    -1.859000000     4.201000000
C    -2.148000000    -1.948000000     3.363000000
C    -2.938000000    -0.825000000     3.192000000
H    -2.706000000    -0.011000000     3.873000000
C    -3.939000000    -0.764000000     2.237000000
O    -4.591000000     0.387000000     2.046000000
C    -4.222000000    -1.894000000     1.456000000
C    -5.180000000    -1.843000000     0.276000000
H    -5.424000000    -2.899000000     0.145000000
C    -4.688000000    -1.213000000    -0.995000000
C    -4.322000000    -2.080000000    -2.033000000
H    -4.522000000    -3.141000000    -1.914000000
H    -6.034000000    -1.240000000     0.593000000
C    -3.606000000    -3.123000000     1.806000000
H    -3.864000000    -4.029000000     1.265000000
C    -2.500000000    -3.136000000     2.711000000
C    -1.653000000    -4.431000000     2.856000000
H    -2.279000000    -5.299000000     2.638000000
H    -1.402000000    -4.508000000     3.915000000
C    -0.432000000    -4.529000000     2.001000000
C    -0.461000000    -4.885000000     0.669000000
H    -1.429000000    -5.252000000     0.336000000
C     0.754000000    -3.961000000     2.450000000
C     1.890000000    -3.848000000     1.598000000
H     2.828000000    -3.439000000     1.965000000
C     1.904000000    -4.339000000     0.320000000
O     2.944000000    -4.063000000    -0.517000000
C     2.925000000    -2.878000000    -1.301000000
C     4.248000000    -2.128000000    -1.264000000
C     4.700000000    -1.394000000    -2.344000000
H     4.034000000    -1.265000000    -3.194000000
C     5.127000000    -2.251000000    -0.185000000
H     4.792000000    -2.829000000     0.673000000
O     2.563000000    -3.341000000    -2.651000000
H     2.181000000    -2.160000000    -0.925000000
C     0.727000000    -4.952000000    -0.118000000
C     0.603000000    -5.355000000    -1.568000000
H    -0.164000000    -6.130000000    -1.625000000
H     1.473000000    -5.877000000    -1.971000000
C     0.222000000    -4.119000000    -2.416000000
C    -1.104000000    -3.876000000    -2.746000000
H    -1.896000000    -4.570000000    -2.474000000
C     1.180000000    -3.286000000    -3.043000000
C     0.803000000    -2.243000000    -3.903000000
H     1.501000000    -1.431000000    -4.092000000
C    -0.489000000    -2.044000000    -4.249000000
O    -0.807000000    -0.903000000    -4.914000000
C    -1.394000000     0.290000000    -4.202000000
C    -0.752000000     1.615000000    -4.430000000
C     0.637000000     1.647000000    -4.605000000
H     1.202000000     0.729000000    -4.743000000
C    -1.455000000     2.768000000    -4.326000000
H    -2.529000000     2.742000000    -4.163000000
O    -2.823000000     0.244000000    -4.410000000
H    -1.220000000     0.078000000    -3.137000000
C    -1.409000000    -2.842000000    -3.579000000
C    -2.953000000    -2.624000000    -3.951000000
H    -3.470000000    -3.586000000    -3.977000000
H    -3.109000000    -2.389000000    -5.006000000
C    -3.711000000    -1.581000000    -3.112000000
C    -3.451000000    -0.238000000    -3.309000000
C    -3.805000000     0.700000000    -2.310000000
H    -3.528000000     1.740000000    -2.457000000
C    -4.476000000     0.212000000    -1.154000000
O    -4.860000000     1.095000000    -0.190000000
C    -4.104000000     1.207000000     0.937000000
H    -3.068000000     0.912000000     0.716000000
C    -4.008000000     2.691000000     1.394000000
C    -3.769000000     3.056000000     2.757000000
H    -3.656000000     2.334000000     3.562000000
C    -3.880000000     3.675000000     0.432000000
H    -3.733000000     3.403000000    -0.609000000
C    -3.808000000     4.980000000     0.781000000
O    -3.944000000     5.964000000    -0.120000000
C    -3.638000000     5.358000000     2.122000000
H    -3.585000000     6.403000000     2.416000000
C    -3.587000000     4.378000000     3.113000000
O    -3.364000000     4.681000000     4.434000000
C    -2.570000000     3.993000000     5.316000000
C    -1.275000000     3.637000000     4.975000000
H    -0.874000000     4.021000000     4.040000000
C    -3.124000000     3.592000000     6.521000000
H    -4.160000000     3.833000000     6.746000000
C    -2.316000000     2.917000000     7.382000000
H    -2.708000000     2.621000000     8.352000000
C    -1.035000000     2.497000000     7.031000000
H    -0.483000000     1.957000000     7.795000000
C    -0.419000000     2.918000000     5.862000000
O     0.966000000     2.743000000     5.491000000
C     1.516000000     1.477000000     5.176000000
C     2.900000000     1.284000000     5.117000000
H     3.552000000     2.148000000     5.217000000
C     3.385000000     0.041000000     4.715000000
O     4.770000000    -0.103000000     4.676000000
C     5.462000000    -1.196000000     4.094000000
C     5.909000000    -0.986000000     2.792000000
H     5.617000000    -0.062000000     2.300000000
C     5.953000000    -2.238000000     4.861000000
H     5.580000000    -2.392000000     5.870000000
C     6.821000000    -3.130000000     4.257000000
H     7.095000000    -4.024000000     4.812000000
C     7.248000000    -2.947000000     2.908000000
H     7.881000000    -3.703000000     2.452000000
C     6.772000000    -1.908000000     2.175000000
O     7.187000000    -1.668000000     0.895000000
C     6.297000000    -1.534000000    -0.117000000
C     6.660000000    -0.781000000    -1.176000000
H     7.602000000    -0.248000000    -1.072000000
C     5.839000000    -0.619000000    -2.244000000
O     6.217000000     0.146000000    -3.318000000
C     5.341000000     0.541000000    -4.311000000
C     4.405000000     1.598000000    -4.029000000
H     4.433000000     2.152000000    -3.095000000
C     5.277000000    -0.099000000    -5.547000000
H     5.923000000    -0.937000000    -5.794000000
C     4.355000000     0.386000000    -6.499000000
H     4.282000000    -0.077000000    -7.480000000
C     3.554000000     1.464000000    -6.240000000
H     2.807000000     1.830000000    -6.938000000
C     3.550000000     1.993000000    -4.974000000
O     2.706000000     2.977000000    -4.774000000
C     1.397000000     2.871000000    -4.495000000
C     0.627000000     4.087000000    -4.444000000
H     1.185000000     5.017000000    -4.515000000
C    -0.805000000     4.051000000    -4.346000000
O    -1.404000000     5.310000000    -4.175000000
C    -2.581000000     5.426000000    -3.513000000
C    -3.749000000     5.376000000    -4.277000000
H    -3.724000000     5.344000000    -5.363000000
C    -4.993000000     5.429000000    -3.580000000
H    -5.888000000     5.368000000    -4.195000000
C    -5.035000000     5.647000000    -2.185000000
H    -5.980000000     5.732000000    -1.655000000
C    -3.869000000     5.774000000    -1.472000000
C    -2.640000000     5.690000000    -2.128000000
H    -1.753000000     5.654000000    -1.500000000
C    -0.173000000     2.044000000     1.273000000
H    -0.443000000     2.524000000     2.211000000
C    -0.570000000     0.751000000     1.024000000
H    -1.172000000     0.240000000     1.771000000
C    -0.234000000     0.068000000    -0.107000000
C    -0.690000000    -1.371000000    -0.259000000
H    -1.460000000    -1.561000000    -1.009000000
H     0.194000000    -1.982000000    -0.454000000
H    -1.103000000    -1.645000000     0.714000000
C     0.523000000     0.681000000    -1.054000000
H     0.947000000     0.104000000    -1.872000000
C     0.976000000     1.986000000    -0.798000000
H     1.667000000     2.499000000    -1.462000000
C     0.589000000     2.687000000     0.313000000
C     1.021000000     4.050000000     0.634000000
O     2.062000000     4.514000000     0.121000000
O     0.580000000     4.747000000     1.522000000
O     0.275000000     6.763000000    -0.493000000
H     1.125000000     6.340000000    -0.378000000
H    -0.283000000     6.368000000     0.177000000
O     5.653000000     3.320000000     3.846000000
H     4.808000000     3.463000000     3.420000000
H     5.496000000     3.531000000     4.767000000
O     5.811000000     6.884000000     0.530000000
H     5.118000000     7.354000000     0.068000000
H     5.768000000     5.993000000     0.183000000
O    -0.166000000     7.919000000    -3.396000000
H    -0.194000000     8.514000000    -2.648000000
H    -0.257000000     7.047000000    -3.013000000
O     2.499000000     6.845000000     2.521000000
H     2.122000000     6.238000000     1.885000000
H     3.443000000     6.789000000     2.376000000
O     6.059000000     2.431000000     1.352000000
H     5.141000000     2.168000000     1.281000000
H     6.107000000     2.912000000     2.178000000
O     2.095000000     7.356000000     5.630000000
H     2.138000000     6.590000000     6.203000000
H     2.516000000     7.071000000     4.819000000
O    -0.994000000     9.637000000     3.934000000
H    -1.798000000    10.067000000     3.641000000
H    -1.115000000     8.717000000     3.701000000
O     3.864000000     8.223000000    -0.694000000
H     4.478000000     8.326000000    -1.421000000
H     3.662000000     9.119000000    -0.423000000
O     3.747000000     1.148000000     0.868000000
H     2.830000000     1.385000000     1.008000000
H     3.737000000     0.615000000     0.073000000
O    -1.073000000     6.564000000     6.111000000
H    -0.740000000     6.795000000     5.244000000
H    -0.392000000     6.008000000     6.489000000
O     5.152000000     7.564000000     3.105000000
H     5.176000000     8.488000000     3.353000000
H     5.520000000     7.543000000     2.222000000
O     4.090000000     5.880000000    -4.472000000
H     3.625000000     5.531000000    -3.712000000
H     3.585000000     6.652000000    -4.729000000
O     1.636000000     9.541000000     2.740000000
H     2.130000000     8.724000000     2.814000000
H     1.005000000     9.505000000     3.459000000
O     5.998000000     4.418000000    -0.748000000
H     6.541000000     4.245000000    -1.517000000
H     5.661000000     3.559000000    -0.495000000
O     0.281000000     9.583000000    -1.001000000
H     0.497000000     8.695000000    -0.718000000
H     0.535000000    10.138000000    -0.263000000
O    -0.401000000     6.598000000     3.368000000
H     0.475000000     6.966000000     3.482000000
H    -0.274000000     5.857000000     2.776000000
O     3.218000000     3.779000000     2.573000000
H     2.306000000     3.707000000     2.856000000
H     3.174000000     4.255000000     1.744000000
O     3.537000000     4.569000000    -2.066000000
H     2.786000000     4.659000000    -1.478000000
H     4.286000000     4.855000000    -1.543000000
