218
-1480.96554
C     2.990000000    -0.059000000     4.174000000
H     3.403000000    -0.882000000     3.596000000
C     1.626000000    -0.131000000     4.501000000
C     1.044000000     0.954000000     5.248000000
H    -0.041000000     0.977000000     5.318000000
C     0.753000000    -1.275000000     3.956000000
O     1.518000000    -2.523000000     3.988000000
H     0.572000000    -1.026000000     2.900000000
O    -0.508000000    -1.360000000     4.685000000
C    -1.626000000    -1.631000000     3.884000000
C    -2.456000000    -0.568000000     3.795000000
H    -2.260000000     0.403000000     4.243000000
C    -3.514000000    -0.720000000     2.935000000
O    -4.196000000     0.416000000     2.664000000
C    -3.909000000    -1.964000000     2.388000000
C    -5.040000000    -2.191000000     1.385000000
H    -5.360000000    -3.235000000     1.352000000
C    -4.601000000    -1.805000000    -0.002000000
C    -3.992000000    -2.712000000    -0.889000000
H    -3.861000000    -3.768000000    -0.667000000
H    -5.886000000    -1.552000000     1.645000000
C    -3.030000000    -3.017000000     2.535000000
H    -3.212000000    -3.996000000     2.100000000
C    -1.850000000    -2.863000000     3.309000000
C    -0.890000000    -4.056000000     3.533000000
H    -1.423000000    -5.008000000     3.555000000
H    -0.547000000    -3.897000000     4.558000000
C     0.323000000    -4.129000000     2.645000000
C     0.180000000    -4.797000000     1.412000000
H    -0.807000000    -5.224000000     1.253000000
C     1.451000000    -3.393000000     2.886000000
C     2.518000000    -3.388000000     1.952000000
H     3.378000000    -2.770000000     2.202000000
C     2.417000000    -4.107000000     0.712000000
O     3.395000000    -3.968000000    -0.253000000
C     3.109000000    -2.964000000    -1.248000000
C     4.220000000    -1.967000000    -1.558000000
C     4.292000000    -1.336000000    -2.774000000
H     3.610000000    -1.564000000    -3.588000000
C     5.194000000    -1.622000000    -0.570000000
H     5.157000000    -2.061000000     0.423000000
O     2.615000000    -3.606000000    -2.405000000
H     2.333000000    -2.305000000    -0.831000000
C     1.202000000    -4.774000000     0.487000000
C     0.960000000    -5.485000000    -0.875000000
H     0.266000000    -6.325000000    -0.795000000
H     1.916000000    -5.851000000    -1.254000000
C     0.447000000    -4.545000000    -1.962000000
C    -0.935000000    -4.466000000    -2.142000000
H    -1.681000000    -5.071000000    -1.633000000
C     1.267000000    -3.619000000    -2.634000000
C     0.776000000    -2.654000000    -3.446000000
H     1.432000000    -1.963000000    -3.969000000
C    -0.632000000    -2.542000000    -3.552000000
O    -1.059000000    -1.530000000    -4.345000000
C    -1.663000000    -0.406000000    -3.779000000
C    -1.253000000     0.891000000    -4.543000000
C    -0.082000000     1.002000000    -5.242000000
H     0.554000000     0.121000000    -5.283000000
C    -2.107000000     1.988000000    -4.382000000
H    -3.031000000     1.978000000    -3.810000000
O    -3.076000000    -0.551000000    -3.786000000
H    -1.322000000    -0.203000000    -2.754000000
C    -1.463000000    -3.454000000    -2.915000000
C    -3.030000000    -3.342000000    -3.056000000
H    -3.458000000    -4.333000000    -2.887000000
H    -3.327000000    -3.054000000    -4.066000000
C    -3.652000000    -2.269000000    -2.202000000
C    -3.696000000    -0.949000000    -2.635000000
C    -4.299000000    -0.027000000    -1.762000000
H    -4.567000000     0.966000000    -2.113000000
C    -4.712000000    -0.449000000    -0.466000000
O    -5.065000000     0.569000000     0.448000000
C    -3.992000000     0.920000000     1.320000000
H    -3.130000000     0.403000000     0.872000000
C    -3.714000000     2.470000000     1.420000000
C    -2.980000000     3.039000000     2.493000000
H    -2.665000000     2.458000000     3.355000000
C    -4.060000000     3.347000000     0.418000000
H    -4.514000000     2.916000000    -0.471000000
C    -3.952000000     4.724000000     0.539000000
O    -4.384000000     5.525000000    -0.438000000
C    -3.375000000     5.277000000     1.651000000
H    -3.382000000     6.355000000     1.793000000
C    -2.793000000     4.453000000     2.589000000
O    -2.200000000     5.028000000     3.683000000
C    -1.676000000     4.437000000     4.817000000
C    -0.362000000     4.031000000     4.907000000
H     0.331000000     4.183000000     4.083000000
C    -2.555000000     4.467000000     5.885000000
H    -3.577000000     4.814000000     5.752000000
C    -2.076000000     4.082000000     7.146000000
H    -2.712000000     4.105000000     8.027000000
C    -0.760000000     3.620000000     7.253000000
H    -0.387000000     3.218000000     8.191000000
C     0.123000000     3.677000000     6.189000000
O     1.402000000     3.107000000     6.367000000
C     1.904000000     1.997000000     5.711000000
C     3.257000000     1.989000000     5.374000000
H     3.960000000     2.689000000     5.818000000
C     3.828000000     1.047000000     4.530000000
O     5.132000000     1.099000000     4.102000000
C     5.737000000     0.094000000     3.428000000
C     6.196000000     0.348000000     2.155000000
H     5.931000000     1.279000000     1.661000000
C     5.984000000    -1.174000000     3.976000000
H     5.610000000    -1.322000000     4.986000000
C     6.792000000    -2.072000000     3.305000000
H     7.104000000    -2.980000000     3.816000000
C     7.315000000    -1.829000000     2.059000000
H     7.939000000    -2.557000000     1.547000000
C     6.943000000    -0.587000000     1.448000000
O     7.131000000    -0.417000000     0.102000000
C     6.106000000    -0.686000000    -0.786000000
C     6.096000000     0.032000000    -1.985000000
H     6.753000000     0.888000000    -2.118000000
C     5.186000000    -0.247000000    -2.984000000
O     5.196000000     0.530000000    -4.111000000
C     4.306000000     0.419000000    -5.129000000
C     3.241000000     1.310000000    -5.270000000
H     3.090000000     2.121000000    -4.562000000
C     4.473000000    -0.555000000    -6.126000000
H     5.382000000    -1.135000000    -5.987000000
C     3.653000000    -0.627000000    -7.196000000
H     3.717000000    -1.497000000    -7.845000000
C     2.608000000     0.281000000    -7.377000000
H     1.912000000     0.167000000    -8.205000000
C     2.431000000     1.275000000    -6.378000000
O     1.445000000     2.242000000    -6.470000000
C     0.266000000     2.172000000    -5.849000000
C    -0.442000000     3.356000000    -5.653000000
H    -0.093000000     4.351000000    -5.918000000
C    -1.568000000     3.255000000    -4.818000000
O    -2.128000000     4.468000000    -4.593000000
C    -3.286000000     4.675000000    -3.901000000
C    -4.530000000     4.328000000    -4.468000000
H    -4.575000000     4.026000000    -5.512000000
C    -5.672000000     4.382000000    -3.685000000
H    -6.677000000     4.252000000    -4.078000000
C    -5.591000000     4.659000000    -2.333000000
H    -6.477000000     4.658000000    -1.703000000
C    -4.420000000     5.093000000    -1.740000000
C    -3.245000000     5.097000000    -2.578000000
H    -2.323000000     5.426000000    -2.106000000
C    -0.121000000     2.590000000     0.530000000
H    -0.710000000     3.461000000     0.252000000
C    -0.619000000     1.326000000     0.287000000
H    -1.571000000     1.126000000    -0.199000000
C     0.196000000     0.215000000     0.551000000
C    -0.248000000    -1.100000000     0.271000000
H    -1.175000000    -1.215000000     0.836000000
H    -0.458000000    -1.170000000    -0.798000000
H     0.433000000    -1.911000000     0.537000000
C     1.478000000     0.379000000     1.090000000
H     2.153000000    -0.465000000     1.208000000
C     1.925000000     1.666000000     1.368000000
H     2.918000000     1.786000000     1.795000000
C     1.176000000     2.811000000     1.060000000
C     1.576000000     4.193000000     1.393000000
O     2.642000000     4.515000000     1.988000000
O     0.731000000     5.121000000     1.156000000
O     2.986000000     8.350000000    -0.426000000
H     3.426000000     7.509000000    -0.553000000
H     2.535000000     8.260000000     0.414000000
O    -1.439000000     8.341000000     1.398000000
H    -1.182000000     7.798000000     0.652000000
H    -0.856000000     8.066000000     2.105000000
O    -0.386000000     7.753000000     5.224000000
H    -0.051000000     7.647000000     4.334000000
H    -0.252000000     6.898000000     5.633000000
O     0.695000000     3.444000000    -2.710000000
H     1.361000000     2.775000000    -2.554000000
H    -0.082000000     2.950000000    -2.974000000
O     4.725000000     3.398000000     0.403000000
H     4.672000000     3.792000000    -0.467000000
H     4.199000000     3.973000000     0.959000000
O     3.049000000     9.198000000     4.239000000
H     3.063000000     8.407000000     3.701000000
H     2.555000000     9.833000000     3.720000000
O     2.741000000     1.644000000    -1.516000000
H     2.733000000     0.772000000    -1.123000000
H     2.999000000     2.227000000    -0.801000000
O     5.416000000     4.489000000     3.029000000
H     4.536000000     4.432000000     3.400000000
H     5.482000000     3.730000000     2.449000000
O     7.761000000     3.195000000     0.005000000
H     6.815000000     3.070000000     0.076000000
H     7.921000000     3.283000000    -0.935000000
O    -1.412000000     7.948000000    -2.721000000
H    -1.298000000     7.161000000    -2.188000000
H    -0.758000000     8.561000000    -2.386000000
O     4.464000000     3.670000000    -2.628000000
H     4.024000000     2.821000000    -2.616000000
H     4.185000000     4.073000000    -3.450000000
O     6.828000000     7.625000000    -0.858000000
H     5.935000000     7.279000000    -0.859000000
H     7.000000000     7.845000000    -1.773000000
O     0.617000000     7.083000000     2.824000000
H     0.493000000     6.304000000     2.280000000
H     1.560000000     7.116000000     2.984000000
O     1.713000000     5.841000000    -3.148000000
H     1.290000000     4.986000000    -3.063000000
H     1.463000000     6.147000000    -4.020000000
O    -0.180000000     6.529000000    -0.765000000
H     0.160000000     6.142000000     0.042000000
H     0.499000000     6.357000000    -1.417000000
O     3.164000000     5.406000000     6.298000000
H     2.974000000     5.106000000     7.187000000
H     2.855000000     4.697000000     5.734000000
O     4.176000000     6.082000000    -1.358000000
H     4.618000000     5.377000000    -1.830000000
H     3.251000000     5.976000000    -1.581000000
O     6.291000000     6.990000000     3.048000000
H     7.020000000     7.050000000     3.665000000
H     6.230000000     6.058000000     2.840000000
O     3.268000000     6.738000000     3.108000000
H     4.212000000     6.811000000     2.968000000
H     3.046000000     5.861000000     2.795000000
