218
-1471.98859
C     2.707000000    -0.410000000     4.807000000
H     3.385000000    -1.254000000     4.711000000
C     1.333000000    -0.668000000     4.529000000
C     0.367000000     0.310000000     4.916000000
H    -0.674000000     0.149000000     4.650000000
C     0.822000000    -1.909000000     3.744000000
O     1.885000000    -2.883000000     3.531000000
H     0.611000000    -1.505000000     2.743000000
O    -0.413000000    -2.421000000     4.238000000
C    -1.433000000    -2.700000000     3.316000000
C    -2.366000000    -1.679000000     3.177000000
H    -2.352000000    -0.815000000     3.837000000
C    -3.384000000    -1.795000000     2.185000000
O    -4.301000000    -0.813000000     2.116000000
C    -3.377000000    -2.967000000     1.339000000
C    -4.488000000    -3.176000000     0.327000000
H    -4.573000000    -4.259000000     0.213000000
C    -4.124000000    -2.491000000    -0.977000000
C    -3.312000000    -3.157000000    -1.945000000
H    -2.974000000    -4.184000000    -1.836000000
H    -5.471000000    -2.777000000     0.587000000
C    -2.382000000    -3.949000000     1.475000000
H    -2.305000000    -4.709000000     0.702000000
C    -1.376000000    -3.812000000     2.440000000
C    -0.198000000    -4.856000000     2.644000000
H    -0.502000000    -5.834000000     2.264000000
H     0.280000000    -4.826000000     3.625000000
C     1.017000000    -4.353000000     1.799000000
C     1.168000000    -4.768000000     0.485000000
H     0.427000000    -5.472000000     0.115000000
C     2.034000000    -3.553000000     2.332000000
C     3.117000000    -3.259000000     1.598000000
H     3.879000000    -2.683000000     2.117000000
C     3.276000000    -3.687000000     0.313000000
O     4.237000000    -3.078000000    -0.449000000
C     3.771000000    -1.988000000    -1.279000000
C     4.838000000    -0.916000000    -1.312000000
C     4.991000000    -0.069000000    -2.452000000
H     4.359000000    -0.306000000    -3.304000000
C     5.517000000    -0.575000000    -0.168000000
H     5.310000000    -1.109000000     0.755000000
O     3.442000000    -2.403000000    -2.623000000
H     2.896000000    -1.443000000    -0.896000000
C     2.253000000    -4.465000000    -0.269000000
C     2.195000000    -4.871000000    -1.719000000
H     1.780000000    -5.878000000    -1.798000000
H     3.205000000    -4.951000000    -2.124000000
C     1.471000000    -3.890000000    -2.635000000
C     0.133000000    -3.983000000    -2.933000000
H    -0.399000000    -4.853000000    -2.556000000
C     2.120000000    -2.656000000    -2.946000000
C     1.522000000    -1.689000000    -3.702000000
H     2.034000000    -0.762000000    -3.945000000
C     0.186000000    -1.857000000    -4.045000000
O    -0.434000000    -0.818000000    -4.715000000
C    -1.258000000     0.070000000    -3.989000000
C    -1.119000000     1.579000000    -4.438000000
C     0.094000000     1.972000000    -4.950000000
H     0.814000000     1.203000000    -5.220000000
C    -2.052000000     2.500000000    -4.051000000
H    -3.007000000     2.160000000    -3.659000000
O    -2.616000000    -0.306000000    -4.159000000
H    -0.969000000     0.004000000    -2.930000000
C    -0.514000000    -3.055000000    -3.703000000
C    -1.983000000    -3.159000000    -4.089000000
H    -2.148000000    -4.230000000    -4.226000000
H    -2.136000000    -2.780000000    -5.102000000
C    -2.897000000    -2.435000000    -3.073000000
C    -3.183000000    -1.055000000    -3.189000000
C    -3.924000000    -0.375000000    -2.183000000
H    -4.297000000     0.642000000    -2.272000000
C    -4.420000000    -1.103000000    -1.080000000
O    -5.068000000    -0.312000000    -0.079000000
C    -4.154000000     0.129000000     0.990000000
H    -3.135000000     0.150000000     0.577000000
C    -4.423000000     1.556000000     1.488000000
C    -4.318000000     1.995000000     2.843000000
H    -4.043000000     1.248000000     3.584000000
C    -4.848000000     2.467000000     0.553000000
H    -4.768000000     2.132000000    -0.478000000
C    -5.050000000     3.796000000     0.917000000
O    -5.318000000     4.735000000    -0.084000000
C    -5.018000000     4.141000000     2.264000000
H    -5.290000000     5.155000000     2.542000000
C    -4.715000000     3.307000000     3.263000000
O    -4.582000000     3.762000000     4.613000000
C    -3.745000000     3.131000000     5.444000000
C    -2.329000000     3.069000000     5.182000000
H    -1.928000000     3.435000000     4.240000000
C    -4.247000000     2.450000000     6.525000000
H    -5.316000000     2.562000000     6.685000000
C    -3.438000000     1.733000000     7.425000000
H    -3.863000000     1.074000000     8.178000000
C    -2.049000000     1.674000000     7.176000000
H    -1.365000000     1.099000000     7.795000000
C    -1.498000000     2.373000000     6.051000000
O    -0.119000000     2.537000000     5.819000000
C     0.756000000     1.495000000     5.535000000
C     2.134000000     1.778000000     5.671000000
H     2.484000000     2.744000000     6.026000000
C     3.082000000     0.782000000     5.357000000
O     4.442000000     1.123000000     5.342000000
C     5.362000000     0.535000000     4.453000000
C     5.618000000     1.001000000     3.177000000
H     5.142000000     1.912000000     2.823000000
C     6.154000000    -0.489000000     4.920000000
H     5.924000000    -0.993000000     5.855000000
C     7.136000000    -1.117000000     4.106000000
H     7.761000000    -1.930000000     4.467000000
C     7.337000000    -0.687000000     2.798000000
H     8.112000000    -1.007000000     2.107000000
C     6.623000000     0.452000000     2.356000000
O     6.845000000     0.973000000     1.077000000
C     6.316000000     0.525000000    -0.136000000
C     6.416000000     1.324000000    -1.256000000
H     6.978000000     2.245000000    -1.123000000
C     5.750000000     1.027000000    -2.473000000
O     5.650000000     1.987000000    -3.502000000
C     4.698000000     1.946000000    -4.566000000
C     3.683000000     2.857000000    -4.540000000
H     3.562000000     3.615000000    -3.770000000
C     4.868000000     1.048000000    -5.622000000
H     5.693000000     0.342000000    -5.557000000
C     3.986000000     1.093000000    -6.653000000
H     4.041000000     0.366000000    -7.460000000
C     2.943000000     2.048000000    -6.700000000
H     2.246000000     2.053000000    -7.534000000
C     2.781000000     2.919000000    -5.586000000
O     1.670000000     3.705000000    -5.591000000
C     0.430000000     3.312000000    -5.081000000
C    -0.492000000     4.311000000    -4.738000000
H    -0.272000000     5.369000000    -4.853000000
C    -1.763000000     3.908000000    -4.266000000
O    -2.696000000     4.858000000    -3.979000000
C    -3.932000000     4.683000000    -3.459000000
C    -4.984000000     4.069000000    -4.172000000
H    -4.944000000     3.903000000    -5.245000000
C    -6.130000000     3.635000000    -3.514000000
H    -6.842000000     2.994000000    -4.028000000
C    -6.278000000     3.822000000    -2.110000000
H    -7.204000000     3.510000000    -1.633000000
C    -5.242000000     4.502000000    -1.458000000
C    -4.094000000     4.839000000    -2.134000000
H    -3.268000000     5.241000000    -1.552000000
C     0.348000000     2.312000000    -1.140000000
H     0.725000000     2.930000000    -1.951000000
C     0.391000000     0.890000000    -1.164000000
H     0.911000000     0.365000000    -1.962000000
C    -0.075000000     0.207000000     0.003000000
C    -0.019000000    -1.295000000     0.023000000
H    -0.543000000    -1.669000000     0.905000000
H    -0.488000000    -1.824000000    -0.810000000
H     0.953000000    -1.782000000     0.123000000
C    -0.577000000     0.978000000     1.058000000
H    -0.945000000     0.405000000     1.904000000
C    -0.593000000     2.364000000     1.022000000
H    -0.989000000     2.871000000     1.898000000
C    -0.159000000     3.073000000    -0.107000000
C    -0.084000000     4.489000000    -0.108000000
O    -1.045000000     5.163000000     0.210000000
O     0.933000000     5.027000000    -0.586000000
O    -3.792000000     7.866000000     0.849000000
H    -2.891000000     7.845000000     0.525000000
H    -4.322000000     8.035000000     0.070000000
O    -0.753000000    11.098000000     0.374000000
H    -0.730000000    10.236000000    -0.042000000
H     0.164000000    11.299000000     0.558000000
O    -0.050000000     9.636000000    -2.282000000
H     0.883000000     9.632000000    -2.497000000
H    -0.272000000     8.712000000    -2.166000000
O     2.944000000     1.813000000     0.952000000
H     2.023000000     1.828000000     0.694000000
H     3.418000000     1.637000000     0.139000000
O     1.640000000     4.961000000     5.571000000
H     0.863000000     4.469000000     5.836000000
H     1.491000000     5.165000000     4.648000000
O    -1.645000000     6.138000000     5.648000000
H    -1.623000000     5.785000000     4.758000000
H    -1.569000000     7.085000000     5.531000000
O     2.041000000     7.297000000     0.415000000
H     1.540000000     6.525000000     0.154000000
H     2.802000000     7.297000000    -0.165000000
O     0.982000000     6.045000000     3.225000000
H     0.812000000     5.963000000     2.287000000
H     0.638000000     6.908000000     3.456000000
O     5.371000000     4.171000000     1.260000000
H     4.743000000     4.687000000     1.765000000
H     4.922000000     3.988000000     0.434000000
O    -1.003000000     7.820000000     0.501000000
H    -0.298000000     8.012000000     1.118000000
H    -0.965000000     6.871000000     0.382000000
O     2.333000000     7.845000000    -4.073000000
H     2.776000000     7.131000000    -4.532000000
H     1.647000000     8.129000000    -4.678000000
O    -0.549000000     7.858000000    -5.067000000
H    -0.529000000     7.639000000    -4.135000000
H    -1.348000000     7.446000000    -5.393000000
O     2.567000000     9.221000000     2.412000000
H     3.417000000     9.594000000     2.179000000
H     2.367000000     8.617000000     1.697000000
O    -2.368000000     5.751000000     2.612000000
H    -1.975000000     5.586000000     1.755000000
H    -3.062000000     6.387000000     2.439000000
O    -0.876000000     6.884000000    -2.440000000
H    -1.655000000     6.443000000    -2.102000000
H    -0.143000000     6.375000000    -2.093000000
O    -0.279000000     8.317000000     3.684000000
H     0.286000000     8.907000000     4.183000000
H    -0.907000000     8.896000000     3.252000000
O     3.260000000     4.571000000     2.831000000
H     2.438000000     5.061000000     2.828000000
H     3.139000000     3.894000000     2.166000000
O     3.569000000     4.583000000    -0.757000000
H     3.930000000     5.302000000    -1.275000000
H     2.621000000     4.661000000    -0.865000000
O     4.525000000     7.535000000    -1.023000000
H     4.342000000     8.474000000    -0.974000000
H     4.862000000     7.404000000    -1.909000000
