218
-1447.07334
C     0.892000000    -0.806000000     5.080000000
H     1.801000000    -1.204000000     4.635000000
C    -0.389000000    -1.103000000     4.633000000
C    -1.450000000    -0.357000000     5.221000000
H    -2.470000000    -0.581000000     4.919000000
C    -0.640000000    -2.214000000     3.557000000
O     0.237000000    -3.330000000     3.640000000
H    -0.462000000    -1.777000000     2.563000000
O    -2.045000000    -2.608000000     3.596000000
C    -2.712000000    -2.720000000     2.429000000
C    -3.601000000    -1.747000000     2.030000000
H    -3.815000000    -0.864000000     2.626000000
C    -4.198000000    -1.839000000     0.756000000
O    -4.916000000    -0.787000000     0.254000000
C    -3.938000000    -2.933000000    -0.115000000
C    -4.544000000    -3.147000000    -1.514000000
H    -4.702000000    -4.213000000    -1.693000000
C    -3.563000000    -2.340000000    -2.532000000
C    -2.529000000    -3.002000000    -3.209000000
H    -2.424000000    -4.069000000    -3.029000000
H    -5.481000000    -2.603000000    -1.651000000
C    -3.055000000    -3.932000000     0.314000000
H    -2.733000000    -4.766000000    -0.305000000
C    -2.366000000    -3.770000000     1.539000000
C    -1.303000000    -4.748000000     1.825000000
H    -1.580000000    -5.683000000     1.333000000
H    -1.374000000    -4.947000000     2.896000000
C     0.128000000    -4.344000000     1.482000000
C     0.749000000    -4.746000000     0.309000000
H     0.197000000    -5.080000000    -0.566000000
C     0.913000000    -3.742000000     2.502000000
C     2.222000000    -3.421000000     2.284000000
H     2.748000000    -2.828000000     3.029000000
C     2.796000000    -3.776000000     1.127000000
O     3.967000000    -3.129000000     0.851000000
C     3.886000000    -1.935000000    -0.004000000
C     4.837000000    -0.876000000     0.456000000
C     5.174000000     0.179000000    -0.413000000
H     4.884000000     0.065000000    -1.455000000
C     5.159000000    -0.793000000     1.834000000
H     4.770000000    -1.551000000     2.507000000
O     4.127000000    -2.377000000    -1.379000000
H     2.895000000    -1.463000000     0.078000000
C     2.102000000    -4.515000000     0.159000000
C     2.683000000    -4.782000000    -1.232000000
H     2.254000000    -5.715000000    -1.605000000
H     3.764000000    -4.935000000    -1.244000000
C     2.328000000    -3.619000000    -2.187000000
C     1.253000000    -3.761000000    -3.050000000
H     0.585000000    -4.616000000    -2.986000000
C     3.032000000    -2.494000000    -2.203000000
C     2.800000000    -1.485000000    -3.159000000
H     3.513000000    -0.666000000    -3.186000000
C     1.655000000    -1.527000000    -3.934000000
O     1.304000000    -0.472000000    -4.698000000
C     0.252000000     0.386000000    -4.192000000
C     0.526000000     1.855000000    -4.488000000
C     1.848000000     2.310000000    -4.253000000
H     2.637000000     1.610000000    -3.988000000
C    -0.515000000     2.711000000    -4.830000000
H    -1.561000000     2.430000000    -4.921000000
O    -0.991000000    -0.057000000    -4.840000000
H     0.078000000     0.309000000    -3.109000000
C     0.901000000    -2.728000000    -3.932000000
C    -0.432000000    -2.927000000    -4.686000000
H    -0.710000000    -3.983000000    -4.680000000
H    -0.281000000    -2.588000000    -5.713000000
C    -1.624000000    -2.266000000    -4.001000000
C    -1.815000000    -0.864000000    -4.138000000
C    -2.941000000    -0.271000000    -3.569000000
H    -3.142000000     0.796000000    -3.635000000
C    -3.796000000    -0.964000000    -2.744000000
O    -4.715000000    -0.256000000    -1.986000000
C    -4.301000000     0.059000000    -0.634000000
H    -3.228000000    -0.185000000    -0.614000000
C    -4.480000000     1.466000000    -0.268000000
C    -4.414000000     1.767000000     1.135000000
H    -4.262000000     1.038000000     1.927000000
C    -4.580000000     2.484000000    -1.218000000
H    -4.430000000     2.448000000    -2.294000000
C    -4.616000000     3.787000000    -0.752000000
O    -4.614000000     4.829000000    -1.688000000
C    -4.749000000     4.043000000     0.620000000
H    -4.684000000     5.079000000     0.940000000
C    -4.515000000     3.068000000     1.581000000
O    -4.623000000     3.407000000     2.944000000
C    -4.679000000     2.586000000     4.028000000
C    -3.455000000     2.322000000     4.639000000
H    -2.512000000     2.777000000     4.349000000
C    -5.854000000     2.008000000     4.504000000
H    -6.762000000     2.150000000     3.924000000
C    -5.804000000     1.044000000     5.496000000
H    -6.674000000     0.471000000     5.805000000
C    -4.575000000     0.871000000     6.236000000
H    -4.527000000     0.167000000     7.063000000
C    -3.454000000     1.574000000     5.878000000
O    -2.293000000     1.422000000     6.611000000
C    -1.272000000     0.626000000     6.142000000
C     0.048000000     0.893000000     6.558000000
H     0.170000000     1.691000000     7.286000000
C     1.096000000     0.204000000     6.000000000
O     2.327000000     0.750000000     6.206000000
C     3.512000000     0.027000000     5.822000000
C     4.432000000     0.403000000     4.910000000
H     4.238000000     1.308000000     4.341000000
C     3.742000000    -1.137000000     6.544000000
H     3.061000000    -1.435000000     7.337000000
C     4.891000000    -1.937000000     6.277000000
H     5.093000000    -2.797000000     6.911000000
C     5.870000000    -1.515000000     5.377000000
H     6.800000000    -2.028000000     5.143000000
C     5.585000000    -0.287000000     4.699000000
O     6.402000000     0.139000000     3.631000000
C     5.879000000     0.246000000     2.336000000
C     6.393000000     1.167000000     1.384000000
H     7.151000000     1.866000000     1.728000000
C     5.912000000     1.234000000     0.044000000
O     6.385000000     2.296000000    -0.695000000
C     6.003000000     2.531000000    -1.992000000
C     4.845000000     3.228000000    -2.303000000
H     4.338000000     3.605000000    -1.418000000
C     6.725000000     1.932000000    -3.072000000
H     7.622000000     1.373000000    -2.818000000
C     6.302000000     2.027000000    -4.437000000
H     6.805000000     1.448000000    -5.207000000
C     5.118000000     2.754000000    -4.647000000
H     4.699000000     2.895000000    -5.640000000
C     4.436000000     3.399000000    -3.585000000
O     3.277000000     4.078000000    -3.819000000
C     2.092000000     3.612000000    -4.265000000
C     1.145000000     4.520000000    -4.647000000
H     1.223000000     5.592000000    -4.482000000
C    -0.160000000     4.071000000    -4.933000000
O    -1.154000000     5.040000000    -5.206000000
C    -2.473000000     4.957000000    -4.698000000
C    -3.481000000     5.089000000    -5.675000000
H    -3.223000000     5.169000000    -6.728000000
C    -4.815000000     5.181000000    -5.288000000
H    -5.515000000     5.451000000    -6.074000000
C    -5.188000000     5.110000000    -3.983000000
H    -6.227000000     5.244000000    -3.696000000
C    -4.210000000     4.817000000    -2.996000000
C    -2.857000000     4.759000000    -3.345000000
H    -2.055000000     4.731000000    -2.611000000
C     1.906000000     2.851000000     0.356000000
H     2.886000000     3.080000000     0.768000000
C     1.588000000     1.499000000     0.225000000
H     2.278000000     0.749000000     0.602000000
C     0.288000000     1.171000000    -0.161000000
C    -0.087000000    -0.229000000    -0.097000000
H    -0.971000000    -0.381000000     0.526000000
H    -0.173000000    -0.557000000    -1.135000000
H     0.625000000    -0.782000000     0.519000000
C    -0.682000000     2.123000000    -0.579000000
H    -1.689000000     1.796000000    -0.827000000
C    -0.253000000     3.462000000    -0.617000000
H    -0.927000000     4.269000000    -0.893000000
C     1.023000000     3.850000000    -0.065000000
C     1.413000000     5.338000000     0.074000000
O     0.623000000     6.216000000    -0.299000000
O     2.635000000     5.562000000     0.397000000
O    -0.092000000     8.531000000     4.237000000
H    -0.325000000     7.697000000     4.645000000
H    -0.479000000     9.194000000     4.808000000
O     3.255000000     8.274000000     0.506000000
H     3.424000000     7.343000000     0.360000000
H     2.399000000     8.297000000     0.934000000
O     0.025000000     7.834000000    -2.661000000
H    -0.521000000     8.506000000    -2.252000000
H     0.485000000     7.421000000    -1.929000000
O     7.146000000     5.356000000    -2.354000000
H     7.845000000     4.977000000    -1.821000000
H     6.423000000     5.490000000    -1.742000000
O    -0.585000000     2.523000000     2.987000000
H     0.050000000     2.458000000     2.274000000
H    -0.105000000     2.947000000     3.698000000
O     3.731000000     7.170000000    -3.021000000
H     3.866000000     7.774000000    -2.291000000
H     3.710000000     6.303000000    -2.615000000
O     2.831000000     5.773000000     3.008000000
H     3.362000000     5.051000000     3.342000000
H     2.941000000     5.732000000     2.058000000
O     4.406000000     3.943000000     4.094000000
H     5.182000000     3.660000000     3.610000000
H     4.749000000     4.273000000     4.925000000
O     1.146000000     4.067000000     4.780000000
H     1.445000000     3.994000000     5.687000000
H     1.794000000     4.632000000     4.359000000
O    -3.783000000     8.231000000     1.809000000
H    -3.016000000     7.730000000     1.534000000
H    -4.247000000     7.648000000     2.410000000
O    -0.890000000     9.853000000    -0.650000000
H    -0.237000000     9.405000000    -0.112000000
H    -1.419000000    10.347000000    -0.024000000
O    -2.082000000     6.591000000    -0.001000000
H    -1.396000000     6.610000000    -0.668000000
H    -1.816000000     5.892000000     0.596000000
O     1.744000000    10.292000000    -2.631000000
H     1.221000000     9.563000000    -2.298000000
H     1.212000000    10.667000000    -3.334000000
O     0.469000000    11.070000000     2.321000000
H     0.646000000    10.129000000     2.317000000
H    -0.400000000    11.152000000     1.928000000
O    -1.789000000     5.065000000     2.333000000
H    -1.507000000     4.174000000     2.543000000
H    -1.615000000     5.565000000     3.130000000
O     4.868000000    10.502000000     0.684000000
H     4.624000000    10.848000000     1.543000000
H     4.306000000     9.736000000     0.567000000
O     0.436000000     8.351000000     1.143000000
H     0.380000000     7.473000000     0.765000000
H     0.303000000     8.217000000     2.081000000
O     2.843000000     8.206000000     4.250000000
H     1.986000000     8.590000000     4.437000000
H     2.644000000     7.348000000     3.875000000
O     5.159000000     5.711000000    -0.613000000
H     5.530000000     5.981000000     0.227000000
H     4.287000000     5.382000000    -0.395000000
