218
-1487.03139
C    -0.722000000     0.360000000     5.331000000
H     0.137000000    -0.306000000     5.346000000
C    -1.765000000     0.017000000     4.516000000
C    -2.884000000     0.865000000     4.500000000
H    -3.745000000     0.623000000     3.883000000
C    -1.829000000    -1.295000000     3.731000000
O    -1.014000000    -2.332000000     4.299000000
H    -1.444000000    -1.131000000     2.713000000
O    -3.180000000    -1.854000000     3.516000000
C    -3.477000000    -2.229000000     2.240000000
C    -4.099000000    -1.330000000     1.398000000
H    -4.496000000    -0.435000000     1.869000000
C    -4.260000000    -1.626000000     0.051000000
O    -4.640000000    -0.580000000    -0.817000000
C    -3.858000000    -2.850000000    -0.456000000
C    -4.095000000    -3.157000000    -1.846000000
H    -4.253000000    -4.238000000    -1.870000000
C    -3.004000000    -2.730000000    -2.782000000
C    -1.905000000    -3.592000000    -3.059000000
H    -1.827000000    -4.580000000    -2.612000000
H    -5.013000000    -2.688000000    -2.206000000
C    -3.165000000    -3.714000000     0.374000000
H    -2.729000000    -4.595000000    -0.089000000
C    -2.987000000    -3.441000000     1.740000000
C    -2.186000000    -4.389000000     2.649000000
H    -2.370000000    -5.354000000     2.173000000
H    -2.605000000    -4.553000000     3.644000000
C    -0.712000000    -4.069000000     2.646000000
C     0.133000000    -4.731000000     1.804000000
H    -0.280000000    -5.548000000     1.219000000
C    -0.201000000    -3.050000000     3.419000000
C     1.163000000    -2.734000000     3.456000000
H     1.509000000    -1.963000000     4.140000000
C     1.949000000    -3.252000000     2.420000000
O     3.203000000    -2.857000000     2.402000000
C     3.692000000    -2.149000000     1.187000000
C     4.507000000    -0.997000000     1.582000000
C     5.517000000    -0.470000000     0.798000000
H     5.903000000    -1.039000000    -0.045000000
C     4.021000000    -0.193000000     2.597000000
H     3.103000000    -0.483000000     3.103000000
O     4.400000000    -3.020000000     0.227000000
H     2.803000000    -1.680000000     0.740000000
C     1.444000000    -4.296000000     1.582000000
C     2.321000000    -5.081000000     0.609000000
H     1.852000000    -6.033000000     0.352000000
H     3.258000000    -5.408000000     1.064000000
C     2.540000000    -4.301000000    -0.714000000
C     1.550000000    -4.484000000    -1.673000000
H     0.804000000    -5.273000000    -1.628000000
C     3.544000000    -3.336000000    -0.830000000
C     3.471000000    -2.470000000    -1.865000000
H     4.160000000    -1.630000000    -1.823000000
C     2.483000000    -2.537000000    -2.806000000
O     2.444000000    -1.695000000    -3.895000000
C     1.311000000    -0.804000000    -3.885000000
C     1.783000000     0.625000000    -4.212000000
C     2.874000000     1.187000000    -3.519000000
H     3.459000000     0.580000000    -2.833000000
C     0.989000000     1.437000000    -4.964000000
H     0.056000000     1.064000000    -5.379000000
O     0.391000000    -1.355000000    -4.808000000
H     0.835000000    -0.926000000    -2.901000000
C     1.576000000    -3.596000000    -2.792000000
C     0.544000000    -3.943000000    -3.854000000
H     0.462000000    -5.030000000    -3.915000000
H     0.956000000    -3.657000000    -4.824000000
C    -0.756000000    -3.194000000    -3.749000000
C    -0.780000000    -1.891000000    -4.233000000
C    -1.774000000    -0.983000000    -4.006000000
H    -1.755000000     0.005000000    -4.458000000
C    -2.879000000    -1.448000000    -3.308000000
O    -3.779000000    -0.419000000    -2.955000000
C    -3.572000000     0.056000000    -1.640000000
H    -2.565000000    -0.204000000    -1.282000000
C    -3.709000000     1.569000000    -1.534000000
C    -4.030000000     2.146000000    -0.300000000
H    -4.079000000     1.485000000     0.561000000
C    -3.533000000     2.373000000    -2.640000000
H    -3.303000000     1.969000000    -3.623000000
C    -3.674000000     3.758000000    -2.480000000
O    -3.383000000     4.557000000    -3.611000000
C    -3.894000000     4.310000000    -1.228000000
H    -3.877000000     5.396000000    -1.188000000
C    -4.030000000     3.492000000    -0.116000000
O    -4.205000000     4.157000000     1.086000000
C    -4.884000000     3.552000000     2.085000000
C    -4.332000000     3.474000000     3.325000000
H    -3.377000000     3.937000000     3.560000000
C    -6.217000000     3.148000000     1.986000000
H    -6.712000000     3.301000000     1.030000000
C    -6.894000000     2.545000000     3.049000000
H    -7.932000000     2.242000000     2.939000000
C    -6.227000000     2.317000000     4.261000000
H    -6.684000000     1.768000000     5.080000000
C    -4.958000000     2.865000000     4.393000000
O    -4.213000000     2.556000000     5.503000000
C    -2.976000000     2.005000000     5.361000000
C    -1.909000000     2.289000000     6.195000000
H    -1.996000000     3.225000000     6.741000000
C    -0.730000000     1.530000000     6.104000000
O     0.327000000     1.898000000     6.911000000
C     1.603000000     1.443000000     6.577000000
C     2.132000000     1.878000000     5.357000000
H     1.552000000     2.366000000     4.578000000
C     2.310000000     0.745000000     7.501000000
H     1.769000000     0.461000000     8.400000000
C     3.618000000     0.386000000     7.192000000
H     4.153000000    -0.334000000     7.806000000
C     4.197000000     0.867000000     6.024000000
H     5.152000000     0.499000000     5.658000000
C     3.452000000     1.473000000     5.080000000
O     3.908000000     1.874000000     3.866000000
C     4.583000000     1.091000000     2.891000000
C     5.602000000     1.582000000     2.090000000
H     6.021000000     2.556000000     2.327000000
C     6.100000000     0.820000000     1.060000000
O     7.045000000     1.281000000     0.262000000
C     6.854000000     1.628000000    -1.033000000
C     5.707000000     2.312000000    -1.415000000
H     5.073000000     2.808000000    -0.685000000
C     7.657000000     0.968000000    -1.958000000
H     8.435000000     0.318000000    -1.567000000
C     7.350000000     1.012000000    -3.346000000
H     7.950000000     0.583000000    -4.145000000
C     6.200000000     1.702000000    -3.741000000
H     6.049000000     1.867000000    -4.805000000
C     5.413000000     2.368000000    -2.787000000
O     4.332000000     3.126000000    -3.179000000
C     3.178000000     2.541000000    -3.738000000
C     2.577000000     3.271000000    -4.739000000
H     2.881000000     4.240000000    -5.126000000
C     1.355000000     2.740000000    -5.209000000
O     0.522000000     3.480000000    -6.064000000
C    -0.848000000     3.538000000    -5.987000000
C    -1.644000000     3.300000000    -7.155000000
H    -1.209000000     2.919000000    -8.075000000
C    -3.033000000     3.442000000    -7.067000000
H    -3.731000000     3.238000000    -7.875000000
C    -3.588000000     3.877000000    -5.890000000
H    -4.653000000     4.077000000    -5.809000000
C    -2.839000000     4.027000000    -4.757000000
C    -1.449000000     3.951000000    -4.817000000
H    -0.807000000     4.280000000    -4.004000000
C     1.568000000     1.714000000     0.995000000
H     2.234000000     2.016000000     1.799000000
C     0.883000000     0.442000000     0.911000000
H     1.021000000    -0.249000000     1.738000000
C     0.045000000     0.100000000    -0.130000000
C    -0.531000000    -1.245000000    -0.209000000
H     0.170000000    -2.078000000    -0.121000000
H    -1.327000000    -1.265000000     0.540000000
H    -0.976000000    -1.513000000    -1.169000000
C    -0.172000000     1.045000000    -1.127000000
H    -0.822000000     0.909000000    -1.988000000
C     0.442000000     2.287000000    -1.079000000
H     0.246000000     2.986000000    -1.889000000
C     1.352000000     2.629000000    -0.051000000
C     2.139000000     3.916000000    -0.163000000
O     1.966000000     4.756000000    -1.090000000
O     2.857000000     4.268000000     0.711000000
O     3.872000000     6.549000000    -1.462000000
H     3.168000000     5.969000000    -1.173000000
H     4.523000000     5.962000000    -1.848000000
O     2.571000000     9.160000000    -0.440000000
H     2.631000000     8.316000000     0.007000000
H     2.126000000     8.963000000    -1.264000000
O     2.127000000     4.943000000     3.295000000
H     2.417000000     4.698000000     2.416000000
H     1.324000000     4.441000000     3.431000000
O    -1.405000000     7.327000000    -3.660000000
H    -1.053000000     6.774000000    -2.963000000
H    -1.924000000     6.731000000    -4.201000000
O    -0.379000000     5.558000000    -1.781000000
H     0.524000000     5.264000000    -1.658000000
H    -0.820000000     5.326000000    -0.963000000
O     6.179000000     5.262000000    -2.556000000
H     6.886000000     5.253000000    -3.202000000
H     5.549000000     4.620000000    -2.882000000
O    -1.534000000     5.311000000     1.013000000
H    -1.565000000     6.168000000     1.439000000
H    -2.415000000     4.955000000     1.127000000
O     2.100000000     6.656000000    -4.212000000
H     2.945000000     6.676000000    -4.661000000
H     2.288000000     6.253000000    -3.365000000
O     8.407000000     5.025000000    -0.962000000
H     7.654000000     5.460000000    -1.362000000
H     8.342000000     5.242000000    -0.032000000
O     1.884000000     6.892000000     1.074000000
H     2.189000000     6.242000000     0.440000000
H     2.295000000     6.632000000     1.899000000
O     5.336000000     8.563000000    -2.291000000
H     4.679000000     7.879000000    -2.159000000
H     5.031000000     9.043000000    -3.061000000
O     2.835000000     5.341000000     6.429000000
H     2.961000000     5.154000000     5.498000000
H     3.093000000     6.258000000     6.526000000
O     7.660000000     5.329000000     2.180000000
H     7.653000000     6.262000000     2.393000000
H     6.965000000     5.226000000     1.530000000
O     5.035000000     5.897000000    -5.192000000
H     5.882000000     5.994000000    -4.756000000
H     5.196000000     5.262000000    -5.890000000
O     5.474000000     5.090000000     0.826000000
H     4.629000000     4.647000000     0.911000000
H     5.378000000     5.641000000     0.049000000
O    -0.619000000     8.012000000     1.444000000
H    -0.604000000     8.603000000     0.692000000
H     0.301000000     7.791000000     1.594000000
O    -0.409000000     3.662000000     3.325000000
H    -0.852000000     4.255000000     2.718000000
H    -0.357000000     2.831000000     2.853000000
O     3.837000000     7.186000000     3.551000000
H     3.605000000     6.263000000     3.445000000
H     4.660000000     7.171000000     4.039000000
O     1.179000000     8.895000000    -2.689000000
H     0.306000000     8.528000000    -2.828000000
H     1.720000000     8.492000000    -3.368000000
