218
-1464.34234
C    -2.084000000     0.375000000     4.310000000
H    -1.083000000    -0.020000000     4.467000000
C    -3.075000000    -0.257000000     3.502000000
C    -4.234000000     0.487000000     3.128000000
H    -4.886000000     0.095000000     2.352000000
C    -2.792000000    -1.543000000     2.760000000
O    -2.273000000    -2.582000000     3.593000000
H    -2.086000000    -1.409000000     1.928000000
O    -3.971000000    -2.238000000     2.301000000
C    -3.988000000    -2.607000000     1.018000000
C    -4.569000000    -1.796000000    -0.001000000
H    -5.062000000    -0.866000000     0.272000000
C    -4.350000000    -2.118000000    -1.392000000
O    -4.641000000    -1.159000000    -2.247000000
C    -3.597000000    -3.191000000    -1.740000000
C    -3.188000000    -3.553000000    -3.194000000
H    -3.069000000    -4.638000000    -3.230000000
C    -1.847000000    -2.877000000    -3.587000000
C    -0.630000000    -3.653000000    -3.635000000
H    -0.688000000    -4.668000000    -3.248000000
H    -3.943000000    -3.263000000    -3.928000000
C    -3.037000000    -3.978000000    -0.734000000
H    -2.537000000    -4.909000000    -0.988000000
C    -3.184000000    -3.687000000     0.627000000
C    -2.608000000    -4.593000000     1.695000000
H    -2.513000000    -5.632000000     1.372000000
H    -3.336000000    -4.649000000     2.508000000
C    -1.229000000    -4.093000000     2.110000000
C    -0.169000000    -4.766000000     1.615000000
H    -0.259000000    -5.597000000     0.921000000
C    -1.133000000    -3.243000000     3.166000000
C     0.136000000    -2.731000000     3.515000000
H     0.287000000    -1.920000000     4.223000000
C     1.266000000    -3.195000000     2.879000000
O     2.491000000    -2.673000000     3.189000000
C     3.126000000    -1.711000000     2.267000000
C     3.797000000    -0.567000000     2.989000000
C     4.930000000     0.107000000     2.450000000
H     5.389000000    -0.355000000     1.580000000
C     3.316000000    -0.012000000     4.174000000
H     2.466000000    -0.524000000     4.617000000
O     4.048000000    -2.450000000     1.434000000
H     2.388000000    -1.276000000     1.576000000
C     1.143000000    -4.265000000     1.985000000
C     2.350000000    -4.806000000     1.242000000
H     2.234000000    -5.848000000     0.939000000
H     3.211000000    -4.812000000     1.913000000
C     2.903000000    -4.045000000     0.057000000
C     2.496000000    -4.474000000    -1.239000000
H     1.989000000    -5.432000000    -1.325000000
C     3.738000000    -2.931000000     0.178000000
C     4.087000000    -2.275000000    -0.975000000
H     4.765000000    -1.435000000    -0.852000000
C     3.562000000    -2.594000000    -2.184000000
O     3.647000000    -1.688000000    -3.174000000
C     2.668000000    -0.620000000    -3.170000000
C     3.244000000     0.767000000    -3.303000000
C     4.503000000     1.064000000    -2.775000000
H     5.221000000     0.317000000    -2.447000000
C     2.436000000     1.747000000    -3.835000000
H     1.485000000     1.508000000    -4.304000000
O     1.784000000    -0.938000000    -4.348000000
H     2.025000000    -0.593000000    -2.277000000
C     2.708000000    -3.652000000    -2.344000000
C     1.877000000    -3.952000000    -3.641000000
H     1.603000000    -5.000000000    -3.780000000
H     2.551000000    -3.637000000    -4.441000000
C     0.595000000    -3.062000000    -3.801000000
C     0.617000000    -1.656000000    -4.132000000
C    -0.549000000    -0.925000000    -4.229000000
H    -0.439000000     0.091000000    -4.600000000
C    -1.801000000    -1.468000000    -3.869000000
O    -2.901000000    -0.713000000    -3.969000000
C    -3.555000000    -0.291000000    -2.743000000
H    -2.741000000    -0.115000000    -2.024000000
C    -3.948000000     1.159000000    -2.823000000
C    -4.798000000     1.779000000    -1.873000000
H    -5.175000000     1.133000000    -1.084000000
C    -3.230000000     1.940000000    -3.718000000
H    -2.451000000     1.503000000    -4.337000000
C    -3.392000000     3.286000000    -3.748000000
O    -2.931000000     4.099000000    -4.756000000
C    -4.338000000     3.895000000    -2.928000000
H    -4.586000000     4.946000000    -3.058000000
C    -5.047000000     3.130000000    -1.966000000
O    -5.812000000     3.760000000    -1.016000000
C    -6.539000000     3.281000000     0.039000000
C    -5.764000000     2.753000000     1.151000000
H    -4.692000000     2.585000000     1.088000000
C    -7.942000000     3.457000000     0.197000000
H    -8.486000000     3.888000000    -0.640000000
C    -8.597000000     3.150000000     1.383000000
H    -9.662000000     3.348000000     1.474000000
C    -7.834000000     2.729000000     2.459000000
H    -8.276000000     2.740000000     3.452000000
C    -6.475000000     2.571000000     2.352000000
O    -5.756000000     2.400000000     3.492000000
C    -4.514000000     1.739000000     3.713000000
C    -3.566000000     2.314000000     4.588000000
H    -3.811000000     3.250000000     5.083000000
C    -2.393000000     1.670000000     4.895000000
O    -1.420000000     2.255000000     5.718000000
C    -0.312000000     1.592000000     6.248000000
C     0.981000000     1.906000000     5.718000000
H     1.194000000     2.612000000     4.920000000
C    -0.473000000     0.762000000     7.316000000
H    -1.475000000     0.583000000     7.697000000
C     0.631000000     0.146000000     7.933000000
H     0.529000000    -0.409000000     8.862000000
C     1.925000000     0.402000000     7.468000000
H     2.749000000    -0.076000000     7.992000000
C     2.123000000     1.254000000     6.347000000
O     3.423000000     1.581000000     5.953000000
C     3.932000000     1.128000000     4.781000000
C     5.020000000     1.755000000     4.209000000
H     5.467000000     2.590000000     4.742000000
C     5.472000000     1.271000000     2.990000000
O     6.587000000     2.038000000     2.491000000
C     7.037000000     1.912000000     1.164000000
C     6.281000000     2.302000000     0.069000000
H     5.370000000     2.840000000     0.319000000
C     8.306000000     1.360000000     0.955000000
H     8.867000000     1.201000000     1.873000000
C     8.731000000     1.151000000    -0.431000000
H     9.735000000     0.821000000    -0.684000000
C     7.953000000     1.602000000    -1.495000000
H     8.322000000     1.537000000    -2.516000000
C     6.747000000     2.169000000    -1.236000000
O     6.172000000     2.772000000    -2.319000000
C     4.885000000     2.392000000    -2.726000000
C     4.024000000     3.391000000    -3.176000000
H     4.348000000     4.429000000    -3.184000000
C     2.780000000     3.105000000    -3.695000000
O     1.972000000     4.128000000    -4.154000000
C     0.813000000     4.020000000    -4.978000000
C     0.984000000     3.823000000    -6.321000000
H     1.976000000     3.844000000    -6.765000000
C    -0.106000000     3.666000000    -7.190000000
H    -0.006000000     3.636000000    -8.272000000
C    -1.446000000     3.785000000    -6.704000000
H    -2.290000000     3.747000000    -7.388000000
C    -1.651000000     3.933000000    -5.323000000
C    -0.543000000     4.121000000    -4.456000000
H    -0.642000000     4.132000000    -3.373000000
C     0.460000000     1.558000000     1.567000000
H     0.582000000     1.845000000     2.608000000
C     0.233000000     0.233000000     1.232000000
H     0.330000000    -0.475000000     2.051000000
C    -0.044000000    -0.103000000    -0.069000000
C    -0.162000000    -1.534000000    -0.466000000
H     0.542000000    -1.795000000    -1.258000000
H     0.012000000    -2.222000000     0.364000000
H    -1.186000000    -1.809000000    -0.730000000
C    -0.223000000     0.901000000    -1.055000000
H    -0.554000000     0.654000000    -2.060000000
C    -0.037000000     2.259000000    -0.746000000
H    -0.250000000     3.041000000    -1.471000000
C     0.462000000     2.517000000     0.535000000
C     0.705000000     4.021000000     0.881000000
O     0.172000000     4.905000000     0.210000000
O     1.282000000     4.292000000     1.922000000
O    -0.979000000     4.940000000     3.449000000
H    -1.607000000     4.369000000     3.006000000
H    -0.167000000     4.833000000     2.952000000
O     1.206000000    10.028000000     1.164000000
H     0.591000000     9.365000000     0.850000000
H     1.723000000    10.259000000     0.393000000
O     2.707000000     6.059000000     0.393000000
H     3.158000000     5.757000000     1.181000000
H     1.825000000     5.695000000     0.467000000
O    -4.094000000     7.334000000     2.686000000
H    -4.881000000     7.650000000     3.130000000
H    -4.409000000     7.006000000     1.844000000
O    -0.616000000     7.270000000     1.204000000
H    -1.531000000     7.325000000     1.479000000
H    -0.520000000     6.378000000     0.869000000
O    -3.475000000     7.272000000    -2.506000000
H    -2.852000000     6.555000000    -2.386000000
H    -2.992000000     8.056000000    -2.245000000
O     3.091000000     8.026000000    -1.897000000
H     2.459000000     7.804000000    -2.580000000
H     2.811000000     7.515000000    -1.137000000
O    -2.622000000     4.171000000     1.347000000
H    -3.471000000     4.494000000     1.045000000
H    -2.017000000     4.383000000     0.636000000
O     3.454000000     5.246000000     3.109000000
H     3.194000000     5.604000000     3.958000000
H     2.737000000     4.660000000     2.867000000
O     5.820000000     5.118000000     1.802000000
H     6.131000000     4.304000000     2.200000000
H     5.025000000     5.333000000     2.289000000
O     3.538000000     8.020000000     4.456000000
H     2.692000000     7.590000000     4.332000000
H     3.377000000     8.936000000     4.228000000
O     0.816000000     7.112000000    -4.029000000
H     0.814000000     6.157000000    -4.100000000
H     0.057000000     7.313000000    -3.481000000
O    -4.591000000     5.939000000     0.157000000
H    -5.169000000     5.488000000    -0.458000000
H    -4.646000000     6.861000000    -0.096000000
O    -0.272000000     8.980000000     5.001000000
H     0.294000000     9.020000000     4.229000000
H    -0.893000000     8.278000000     4.806000000
O    -0.731000000     6.400000000    -1.670000000
H    -0.627000000     5.912000000    -0.853000000
H    -0.879000000     7.304000000    -1.392000000
O     5.532000000     6.585000000    -0.644000000
H     5.761000000     5.733000000    -0.273000000
H     4.625000000     6.485000000    -0.932000000
O     1.476000000     5.686000000     5.160000000
H     0.712000000     5.232000000     5.516000000
H     1.151000000     6.117000000     4.369000000
O    -1.955000000     7.090000000     4.270000000
H    -1.445000000     6.364000000     3.910000000
H    -2.786000000     7.056000000     3.796000000
O     1.301000000     7.507000000     3.074000000
H     2.013000000     7.429000000     2.439000000
H     0.505000000     7.493000000     2.543000000
