218
-1465.20253
C    -2.143000000     1.390000000     4.657000000
H    -1.794000000     0.662000000     5.385000000
C    -2.766000000     0.959000000     3.535000000
C    -3.239000000     1.937000000     2.729000000
H    -3.659000000     1.705000000     1.754000000
C    -2.820000000    -0.511000000     3.096000000
O    -2.283000000    -1.410000000     4.132000000
H    -2.132000000    -0.515000000     2.237000000
O    -4.120000000    -0.938000000     2.615000000
C    -4.107000000    -1.679000000     1.384000000
C    -4.408000000    -0.964000000     0.212000000
H    -4.816000000     0.022000000     0.422000000
C    -4.338000000    -1.618000000    -1.002000000
O    -4.537000000    -0.891000000    -2.188000000
C    -3.839000000    -2.944000000    -1.098000000
C    -3.596000000    -3.579000000    -2.477000000
H    -3.703000000    -4.666000000    -2.457000000
C    -2.205000000    -3.175000000    -2.906000000
C    -1.103000000    -4.012000000    -2.661000000
H    -1.273000000    -4.967000000    -2.172000000
H    -4.259000000    -3.205000000    -3.261000000
C    -3.393000000    -3.625000000     0.085000000
H    -3.124000000    -4.667000000    -0.070000000
C    -3.537000000    -2.983000000     1.301000000
C    -3.195000000    -3.722000000     2.584000000
H    -3.249000000    -4.811000000     2.515000000
H    -3.855000000    -3.351000000     3.371000000
C    -1.758000000    -3.393000000     2.960000000
C    -0.712000000    -4.122000000     2.416000000
H    -0.813000000    -4.921000000     1.686000000
C    -1.400000000    -2.326000000     3.708000000
C    -0.061000000    -1.952000000     4.029000000
H     0.185000000    -1.032000000     4.553000000
C     0.966000000    -2.797000000     3.595000000
O     2.226000000    -2.397000000     3.763000000
C     2.899000000    -1.737000000     2.639000000
C     3.587000000    -0.447000000     3.058000000
C     4.741000000    -0.098000000     2.399000000
H     5.113000000    -0.665000000     1.549000000
C     3.238000000     0.270000000     4.226000000
H     2.407000000     0.005000000     4.875000000
O     3.777000000    -2.682000000     2.029000000
H     2.092000000    -1.493000000     1.932000000
C     0.650000000    -3.879000000     2.813000000
C     1.704000000    -4.817000000     2.197000000
H     1.343000000    -5.815000000     1.937000000
H     2.530000000    -4.909000000     2.905000000
C     2.236000000    -4.180000000     0.968000000
C     1.676000000    -4.675000000    -0.264000000
H     0.867000000    -5.399000000    -0.203000000
C     3.278000000    -3.234000000     0.889000000
C     3.675000000    -2.713000000    -0.399000000
H     4.438000000    -1.948000000    -0.518000000
C     3.105000000    -3.209000000    -1.596000000
O     3.317000000    -2.446000000    -2.752000000
C     2.411000000    -1.450000000    -3.192000000
C     3.057000000    -0.126000000    -3.560000000
C     4.377000000     0.100000000    -3.254000000
H     4.962000000    -0.685000000    -2.782000000
C     2.334000000     0.882000000    -4.181000000
H     1.338000000     0.644000000    -4.544000000
O     1.573000000    -1.998000000    -4.265000000
H     1.754000000    -1.301000000    -2.323000000
C     2.175000000    -4.207000000    -1.536000000
C     1.391000000    -4.630000000    -2.773000000
H     1.003000000    -5.642000000    -2.641000000
H     2.133000000    -4.735000000    -3.568000000
C     0.234000000    -3.704000000    -3.097000000
C     0.389000000    -2.558000000    -3.836000000
C    -0.738000000    -1.767000000    -4.156000000
H    -0.525000000    -0.843000000    -4.687000000
C    -1.977000000    -2.029000000    -3.667000000
O    -2.964000000    -1.085000000    -3.936000000
C    -3.443000000    -0.261000000    -2.820000000
H    -2.697000000    -0.063000000    -2.036000000
C    -3.872000000     1.110000000    -3.281000000
C    -4.835000000     1.875000000    -2.605000000
H    -5.437000000     1.314000000    -1.895000000
C    -3.081000000     1.747000000    -4.194000000
H    -2.420000000     1.138000000    -4.805000000
C    -3.255000000     3.129000000    -4.398000000
O    -2.554000000     3.829000000    -5.375000000
C    -4.264000000     3.856000000    -3.725000000
H    -4.345000000     4.925000000    -3.900000000
C    -5.086000000     3.220000000    -2.818000000
O    -5.933000000     3.955000000    -2.084000000
C    -5.916000000     3.952000000    -0.671000000
C    -4.769000000     4.159000000     0.087000000
H    -3.799000000     4.240000000    -0.397000000
C    -7.150000000     3.951000000    -0.027000000
H    -8.094000000     3.809000000    -0.547000000
C    -7.222000000     4.110000000     1.408000000
H    -8.154000000     4.228000000     1.955000000
C    -6.051000000     4.212000000     2.146000000
H    -6.053000000     4.363000000     3.223000000
C    -4.839000000     4.326000000     1.462000000
O    -3.688000000     4.343000000     2.220000000
C    -3.207000000     3.330000000     3.086000000
C    -2.493000000     3.770000000     4.209000000
H    -2.494000000     4.802000000     4.548000000
C    -1.968000000     2.746000000     5.007000000
O    -1.230000000     3.088000000     6.084000000
C    -0.106000000     2.435000000     6.440000000
C     1.157000000     2.753000000     5.888000000
H     1.335000000     3.621000000     5.258000000
C    -0.221000000     1.353000000     7.364000000
H    -1.187000000     1.022000000     7.737000000
C     0.917000000     0.625000000     7.734000000
H     0.814000000    -0.241000000     8.383000000
C     2.121000000     0.895000000     7.092000000
H     3.021000000     0.286000000     7.104000000
C     2.245000000     2.026000000     6.222000000
O     3.480000000     2.292000000     5.555000000
C     3.985000000     1.449000000     4.546000000
C     5.052000000     1.849000000     3.743000000
H     5.544000000     2.802000000     3.922000000
C     5.432000000     1.113000000     2.706000000
O     6.507000000     1.574000000     1.944000000
C     6.872000000     1.080000000     0.698000000
C     6.333000000     1.593000000    -0.435000000
H     5.841000000     2.561000000    -0.390000000
C     7.823000000     0.003000000     0.578000000
H     8.295000000    -0.381000000     1.478000000
C     8.092000000    -0.598000000    -0.632000000
H     8.863000000    -1.359000000    -0.718000000
C     7.539000000    -0.012000000    -1.774000000
H     7.738000000    -0.399000000    -2.770000000
C     6.677000000     1.095000000    -1.696000000
O     6.220000000     1.605000000    -2.861000000
C     4.929000000     1.331000000    -3.348000000
C     4.249000000     2.394000000    -3.932000000
H     4.757000000     3.331000000    -4.144000000
C     2.920000000     2.149000000    -4.427000000
O     2.183000000     3.118000000    -5.076000000
C     1.015000000     2.953000000    -5.798000000
C     0.980000000     2.282000000    -6.989000000
H     1.875000000     1.856000000    -7.435000000
C    -0.179000000     2.184000000    -7.741000000
H    -0.119000000     1.593000000    -8.651000000
C    -1.419000000     2.702000000    -7.241000000
H    -2.358000000     2.767000000    -7.784000000
C    -1.392000000     3.311000000    -5.987000000
C    -0.152000000     3.478000000    -5.270000000
H    -0.084000000     3.988000000    -4.313000000
C     0.986000000     2.568000000     1.704000000
H     0.909000000     3.037000000     2.682000000
C     0.526000000     1.265000000     1.562000000
H     0.071000000     0.740000000     2.398000000
C     0.599000000     0.561000000     0.358000000
C     0.066000000    -0.830000000     0.270000000
H    -0.738000000    -0.754000000    -0.465000000
H     0.744000000    -1.574000000    -0.153000000
H    -0.327000000    -1.213000000     1.214000000
C     1.227000000     1.243000000    -0.731000000
H     1.255000000     0.775000000    -1.711000000
C     1.694000000     2.554000000    -0.659000000
H     2.076000000     3.043000000    -1.552000000
C     1.585000000     3.235000000     0.563000000
C     2.146000000     4.610000000     0.714000000
O     2.729000000     5.188000000    -0.168000000
O     1.612000000     5.278000000     1.546000000
O     1.802000000     6.864000000     5.775000000
H     1.736000000     7.650000000     5.234000000
H     0.909000000     6.522000000     5.811000000
O    -0.902000000     5.877000000     1.646000000
H     0.037000000     5.691000000     1.650000000
H    -1.084000000     6.215000000     2.523000000
O     5.944000000     7.232000000    -2.600000000
H     5.044000000     7.403000000    -2.324000000
H     5.870000000     6.996000000    -3.525000000
O     1.909000000     7.833000000     1.289000000
H     1.467000000     8.147000000     2.078000000
H     1.817000000     6.881000000     1.326000000
O     7.211000000     7.470000000     0.873000000
H     6.807000000     6.612000000     1.009000000
H     6.523000000     7.996000000     0.466000000
O     5.377000000     6.223000000     5.558000000
H     4.625000000     5.723000000     5.240000000
H     5.086000000     7.135000000     5.535000000
O    -0.926000000     8.598000000     0.229000000
H    -0.670000000     8.176000000    -0.591000000
H    -1.128000000     7.871000000     0.819000000
O    -0.174000000     4.650000000    -2.064000000
H    -0.599000000     4.082000000    -1.420000000
H     0.763000000     4.526000000    -1.911000000
O     4.600000000     8.568000000     0.931000000
H     3.648000000     8.479000000     0.874000000
H     4.739000000     9.470000000     1.220000000
O     3.162000000     5.670000000     3.647000000
H     2.499000000     5.421000000     3.003000000
H     2.666000000     5.841000000     4.447000000
O     1.703000000     7.379000000    -3.633000000
H     2.337000000     7.378000000    -2.916000000
H     0.853000000     7.305000000    -3.200000000
O     5.611000000     5.121000000     2.064000000
H     4.830000000     5.532000000     2.435000000
H     5.325000000     4.240000000     1.821000000
O     8.439000000     4.421000000     1.724000000
H     7.510000000     4.475000000     1.951000000
H     8.849000000     4.014000000     2.487000000
O     5.093000000     8.566000000     3.987000000
H     5.984000000     8.813000000     3.740000000
H     4.785000000     8.023000000     3.261000000
O     5.293000000     4.742000000    -1.221000000
H     5.540000000     5.619000000    -1.514000000
H     4.370000000     4.822000000    -0.980000000
O     3.339000000     7.515000000    -1.534000000
H     3.126000000     6.725000000    -1.038000000
H     3.608000000     8.150000000    -0.870000000
O    -0.709000000     7.367000000    -2.278000000
H    -0.796000000     6.416000000    -2.337000000
H    -1.173000000     7.699000000    -3.046000000
O    -1.479000000     3.654000000     0.069000000
H    -1.422000000     4.508000000     0.497000000
H    -1.041000000     3.054000000     0.673000000
O     0.524000000     8.657000000     3.453000000
H     0.152000000     9.430000000     3.029000000
H    -0.231000000     8.103000000     3.649000000
