218
-1448.31167
C    -1.955000000     1.057000000     4.314000000
H    -1.009000000     0.689000000     4.701000000
C    -2.825000000     0.192000000     3.568000000
C    -3.927000000     0.784000000     2.973000000
H    -4.554000000     0.182000000     2.320000000
C    -2.373000000    -1.176000000     3.157000000
O    -1.744000000    -1.921000000     4.210000000
H    -1.686000000    -1.040000000     2.309000000
O    -3.488000000    -1.892000000     2.660000000
C    -3.263000000    -2.742000000     1.576000000
C    -3.901000000    -2.259000000     0.463000000
H    -4.576000000    -1.407000000     0.425000000
C    -3.631000000    -2.945000000    -0.785000000
O    -4.192000000    -2.436000000    -1.926000000
C    -2.796000000    -4.081000000    -0.819000000
C    -2.494000000    -4.771000000    -2.139000000
H    -2.276000000    -5.832000000    -2.000000000
C    -1.426000000    -3.963000000    -2.887000000
C    -0.145000000    -4.344000000    -2.714000000
H    -0.072000000    -5.158000000    -1.998000000
H    -3.477000000    -4.784000000    -2.615000000
C    -2.308000000    -4.529000000     0.375000000
H    -1.658000000    -5.401000000     0.366000000
C    -2.458000000    -3.845000000     1.584000000
C    -1.833000000    -4.428000000     2.829000000
H    -1.596000000    -5.455000000     2.544000000
H    -2.605000000    -4.421000000     3.601000000
C    -0.506000000    -3.718000000     3.136000000
C     0.711000000    -4.329000000     2.776000000
H     0.659000000    -5.239000000     2.184000000
C    -0.570000000    -2.534000000     3.887000000
C     0.626000000    -1.854000000     4.203000000
H     0.521000000    -1.000000000     4.868000000
C     1.851000000    -2.338000000     3.749000000
O     3.010000000    -1.527000000     3.793000000
C     3.525000000    -0.842000000     2.604000000
C     4.150000000     0.413000000     3.020000000
C     5.236000000     0.973000000     2.323000000
H     5.862000000     0.383000000     1.659000000
C     3.389000000     1.309000000     3.823000000
H     2.454000000     1.000000000     4.284000000
O     4.443000000    -1.720000000     1.959000000
H     2.640000000    -0.525000000     2.033000000
C     1.878000000    -3.538000000     2.984000000
C     3.140000000    -4.037000000     2.290000000
H     3.016000000    -5.107000000     2.110000000
H     3.996000000    -3.926000000     2.960000000
C     3.379000000    -3.564000000     0.833000000
C     2.798000000    -4.159000000    -0.288000000
H     2.322000000    -5.126000000    -0.148000000
C     4.109000000    -2.364000000     0.789000000
C     4.067000000    -1.696000000    -0.442000000
H     4.586000000    -0.743000000    -0.505000000
C     3.571000000    -2.295000000    -1.614000000
O     3.569000000    -1.531000000    -2.769000000
C     2.371000000    -0.845000000    -3.119000000
C     2.526000000     0.639000000    -3.234000000
C     3.689000000     1.349000000    -2.950000000
H     4.556000000     0.750000000    -2.685000000
C     1.412000000     1.404000000    -3.540000000
H     0.478000000     0.890000000    -3.748000000
O     1.731000000    -1.548000000    -4.211000000
H     1.682000000    -1.029000000    -2.281000000
C     2.950000000    -3.553000000    -1.592000000
C     2.358000000    -4.220000000    -2.822000000
H     2.130000000    -5.260000000    -2.576000000
H     2.951000000    -4.135000000    -3.734000000
C     0.950000000    -3.693000000    -3.245000000
C     0.758000000    -2.494000000    -3.963000000
C    -0.536000000    -2.155000000    -4.255000000
H    -0.634000000    -1.176000000    -4.718000000
C    -1.636000000    -2.834000000    -3.756000000
O    -2.911000000    -2.325000000    -3.894000000
C    -3.311000000    -1.564000000    -2.722000000
H    -2.430000000    -1.194000000    -2.178000000
C    -4.127000000    -0.369000000    -3.279000000
C    -5.124000000     0.206000000    -2.492000000
H    -5.495000000    -0.285000000    -1.595000000
C    -3.662000000     0.320000000    -4.388000000
H    -2.913000000    -0.125000000    -5.039000000
C    -4.225000000     1.561000000    -4.735000000
O    -3.835000000     2.296000000    -5.834000000
C    -5.277000000     2.072000000    -3.932000000
H    -5.884000000     2.937000000    -4.185000000
C    -5.726000000     1.421000000    -2.811000000
O    -6.721000000     1.935000000    -2.035000000
C    -6.844000000     1.756000000    -0.667000000
C    -5.896000000     2.237000000     0.232000000
H    -5.053000000     2.809000000    -0.147000000
C    -7.943000000     1.111000000    -0.203000000
H    -8.600000000     0.664000000    -0.943000000
C    -8.266000000     1.127000000     1.186000000
H    -9.220000000     0.809000000     1.599000000
C    -7.283000000     1.548000000     2.048000000
H    -7.537000000     1.591000000     3.104000000
C    -6.134000000     2.143000000     1.616000000
O    -5.278000000     2.715000000     2.530000000
C    -4.209000000     2.121000000     3.161000000
C    -3.418000000     2.955000000     3.910000000
H    -3.590000000     4.027000000     3.968000000
C    -2.348000000     2.402000000     4.493000000
O    -1.523000000     3.222000000     5.294000000
C    -0.305000000     2.985000000     5.896000000
C     0.837000000     3.132000000     5.159000000
H     0.733000000     3.291000000     4.089000000
C    -0.137000000     2.766000000     7.299000000
H    -1.052000000     2.572000000     7.853000000
C     1.102000000     2.854000000     7.907000000
H     1.229000000     2.646000000     8.967000000
C     2.149000000     3.196000000     7.122000000
H     3.114000000     3.350000000     7.599000000
C     2.079000000     3.243000000     5.729000000
O     3.190000000     3.443000000     4.958000000
C     3.840000000     2.601000000     4.094000000
C     4.983000000     3.119000000     3.494000000
H     5.167000000     4.187000000     3.578000000
C     5.628000000     2.314000000     2.544000000
O     6.465000000     2.989000000     1.635000000
C     6.694000000     2.516000000     0.328000000
C     5.723000000     2.860000000    -0.596000000
H     4.784000000     3.315000000    -0.291000000
C     8.045000000     2.339000000    -0.120000000
H     8.833000000     2.209000000     0.617000000
C     8.280000000     2.137000000    -1.487000000
H     9.264000000     1.893000000    -1.880000000
C     7.236000000     2.311000000    -2.415000000
H     7.384000000     2.331000000    -3.492000000
C     5.976000000     2.772000000    -1.977000000
O     5.062000000     3.300000000    -2.854000000
C     3.854000000     2.680000000    -3.175000000
C     2.740000000     3.432000000    -3.551000000
H     2.806000000     4.515000000    -3.625000000
C     1.492000000     2.788000000    -3.634000000
O     0.361000000     3.511000000    -3.926000000
C    -0.392000000     3.310000000    -4.989000000
C     0.163000000     3.319000000    -6.363000000
H     1.190000000     3.620000000    -6.552000000
C    -0.588000000     2.876000000    -7.454000000
H    -0.175000000     2.917000000    -8.459000000
C    -1.919000000     2.622000000    -7.267000000
H    -2.522000000     2.343000000    -8.127000000
C    -2.496000000     2.691000000    -6.018000000
C    -1.748000000     3.042000000    -4.878000000
H    -2.253000000     3.074000000    -3.915000000
C    -0.809000000     2.290000000     0.808000000
H    -1.768000000     2.767000000     0.996000000
C    -0.856000000     1.002000000     0.471000000
H    -1.744000000     0.386000000     0.585000000
C     0.322000000     0.246000000     0.201000000
C     0.359000000    -1.261000000    -0.069000000
H    -0.124000000    -1.737000000     0.787000000
H    -0.245000000    -1.498000000    -0.947000000
H     1.383000000    -1.634000000    -0.005000000
C     1.506000000     0.985000000     0.040000000
H     2.431000000     0.449000000    -0.158000000
C     1.536000000     2.350000000     0.295000000
H     2.507000000     2.798000000     0.489000000
C     0.364000000     3.044000000     0.738000000
C     0.338000000     4.504000000     1.028000000
O     1.286000000     5.061000000     1.456000000
O    -0.676000000     5.126000000     1.140000000
O    -3.634000000     6.508000000     5.268000000
H    -2.946000000     6.476000000     4.602000000
H    -4.446000000     6.375000000     4.779000000
O     4.577000000     6.800000000     4.022000000
H     4.271000000     6.400000000     3.208000000
H     3.869000000     6.642000000     4.646000000
O     1.951000000     6.552000000     5.775000000
H     1.340000000     6.553000000     6.512000000
H     1.506000000     6.046000000     5.095000000
O     1.987000000     6.960000000    -0.685000000
H     2.651000000     7.611000000    -0.458000000
H     1.846000000     6.469000000     0.124000000
O    -0.797000000     8.551000000    -1.294000000
H    -0.464000000     8.568000000    -0.397000000
H    -0.578000000     7.677000000    -1.616000000
O     5.593000000     6.472000000    -1.272000000
H     5.032000000     7.052000000    -0.756000000
H     5.037000000     5.719000000    -1.472000000
O    -2.905000000     8.455000000     1.353000000
H    -3.250000000     9.024000000     0.665000000
H    -3.131000000     8.902000000     2.169000000
O     0.731000000     7.046000000     3.325000000
H     0.757000000     6.394000000     2.625000000
H    -0.140000000     6.950000000     3.709000000
O     4.017000000     8.864000000    -0.187000000
H     4.007000000     9.804000000    -0.365000000
H     3.865000000     8.797000000     0.756000000
O     3.846000000     5.390000000     1.710000000
H     4.268000000     4.533000000     1.764000000
H     2.910000000     5.195000000     1.672000000
O     3.370000000     7.712000000    -3.227000000
H     3.272000000     8.004000000    -2.320000000
H     3.319000000     8.516000000    -3.744000000
O    -0.157000000     5.861000000    -2.396000000
H    -0.090000000     5.242000000    -3.123000000
H     0.729000000     5.904000000    -2.036000000
O    -4.457000000     5.281000000    -3.135000000
H    -3.861000000     4.811000000    -2.552000000
H    -3.906000000     5.933000000    -3.567000000
O     2.666000000     8.812000000     2.225000000
H     2.205000000     7.977000000     2.303000000
H     2.656000000     9.176000000     3.110000000
O    -2.349000000     4.997000000    -1.024000000
H    -1.941000000     5.057000000    -0.160000000
H    -1.699000000     5.366000000    -1.622000000
O    -4.516000000     6.319000000     0.396000000
H    -4.117000000     6.988000000     0.953000000
H    -3.801000000     6.018000000    -0.165000000
O    -1.280000000    10.641000000     1.373000000
H    -1.508000000     9.716000000     1.281000000
H    -2.115000000    11.080000000     1.535000000
O     2.768000000     9.091000000     5.019000000
H     2.569000000     8.188000000     5.268000000
H     3.590000000     9.287000000     5.467000000
O    -2.101000000     6.320000000     3.007000000
H    -2.357000000     7.032000000     2.420000000
H    -1.554000000     5.749000000     2.467000000
