218
-1475.42693
C    -2.517000000     0.387000000     4.560000000
H    -1.736000000    -0.131000000     5.110000000
C    -3.191000000    -0.303000000     3.572000000
C    -4.245000000     0.284000000     2.886000000
H    -4.659000000    -0.144000000     1.977000000
C    -2.622000000    -1.556000000     3.071000000
O    -1.715000000    -2.153000000     3.982000000
H    -2.081000000    -1.323000000     2.141000000
O    -3.621000000    -2.575000000     2.720000000
C    -3.408000000    -3.230000000     1.523000000
C    -3.963000000    -2.583000000     0.419000000
H    -4.699000000    -1.792000000     0.538000000
C    -3.536000000    -2.974000000    -0.840000000
O    -4.014000000    -2.282000000    -1.910000000
C    -2.670000000    -4.052000000    -1.011000000
C    -2.323000000    -4.562000000    -2.415000000
H    -2.157000000    -5.641000000    -2.425000000
C    -1.107000000    -3.786000000    -3.072000000
C     0.170000000    -4.241000000    -2.949000000
H     0.396000000    -5.204000000    -2.499000000
H    -3.265000000    -4.444000000    -2.955000000
C    -2.118000000    -4.683000000     0.069000000
H    -1.296000000    -5.355000000    -0.167000000
C    -2.408000000    -4.233000000     1.375000000
C    -1.660000000    -4.738000000     2.623000000
H    -1.381000000    -5.794000000     2.618000000
H    -2.347000000    -4.536000000     3.447000000
C    -0.468000000    -3.899000000     2.827000000
C     0.826000000    -4.289000000     2.387000000
H     0.833000000    -5.225000000     1.835000000
C    -0.542000000    -2.589000000     3.381000000
C     0.598000000    -1.813000000     3.659000000
H     0.585000000    -0.808000000     4.075000000
C     1.828000000    -2.305000000     3.249000000
O     2.942000000    -1.520000000     3.377000000
C     3.462000000    -0.705000000     2.310000000
C     3.849000000     0.665000000     2.722000000
C     4.975000000     1.335000000     2.260000000
H     5.713000000     0.821000000     1.649000000
C     2.916000000     1.404000000     3.515000000
H     2.014000000     0.889000000     3.835000000
O     4.577000000    -1.409000000     1.667000000
H     2.671000000    -0.642000000     1.548000000
C     1.920000000    -3.501000000     2.535000000
C     3.247000000    -3.966000000     2.056000000
H     3.118000000    -5.047000000     1.975000000
H     4.071000000    -3.722000000     2.730000000
C     3.609000000    -3.372000000     0.654000000
C     3.035000000    -4.008000000    -0.491000000
H     2.451000000    -4.920000000    -0.391000000
C     4.311000000    -2.220000000     0.506000000
C     4.544000000    -1.614000000    -0.730000000
H     5.133000000    -0.701000000    -0.776000000
C     3.954000000    -2.184000000    -1.834000000
O     4.032000000    -1.495000000    -2.977000000
C     2.771000000    -0.804000000    -3.293000000
C     2.822000000     0.678000000    -3.328000000
C     4.037000000     1.319000000    -2.953000000
H     4.966000000     0.811000000    -2.705000000
C     1.677000000     1.530000000    -3.613000000
H     0.735000000     1.114000000    -3.961000000
O     2.076000000    -1.439000000    -4.375000000
H     2.217000000    -1.016000000    -2.366000000
C     3.220000000    -3.406000000    -1.775000000
C     2.699000000    -4.018000000    -3.017000000
H     2.619000000    -5.105000000    -2.964000000
H     3.348000000    -3.812000000    -3.871000000
C     1.310000000    -3.454000000    -3.307000000
C     1.055000000    -2.210000000    -3.879000000
C    -0.213000000    -1.747000000    -4.103000000
H    -0.441000000    -0.821000000    -4.626000000
C    -1.291000000    -2.504000000    -3.589000000
O    -2.548000000    -1.985000000    -3.706000000
C    -3.173000000    -1.283000000    -2.569000000
H    -2.370000000    -1.031000000    -1.860000000
C    -3.894000000    -0.012000000    -2.919000000
C    -5.038000000     0.383000000    -2.210000000
H    -5.381000000    -0.220000000    -1.372000000
C    -3.351000000     0.823000000    -3.897000000
H    -2.486000000     0.485000000    -4.463000000
C    -4.143000000     1.940000000    -4.375000000
O    -3.694000000     2.696000000    -5.381000000
C    -5.353000000     2.260000000    -3.766000000
H    -6.001000000     3.001000000    -4.228000000
C    -5.828000000     1.547000000    -2.655000000
O    -6.990000000     1.855000000    -2.024000000
C    -7.108000000     1.557000000    -0.720000000
C    -6.317000000     2.157000000     0.260000000
H    -5.514000000     2.839000000    -0.007000000
C    -8.050000000     0.605000000    -0.310000000
H    -8.656000000     0.013000000    -0.991000000
C    -8.138000000     0.326000000     1.059000000
H    -8.851000000    -0.409000000     1.425000000
C    -7.471000000     1.015000000     2.016000000
H    -7.525000000     0.758000000     3.070000000
C    -6.463000000     1.881000000     1.633000000
O    -5.531000000     2.374000000     2.510000000
C    -4.634000000     1.631000000     3.270000000
C    -3.946000000     2.331000000     4.202000000
H    -4.142000000     3.346000000     4.540000000
C    -2.890000000     1.711000000     4.815000000
O    -2.344000000     2.373000000     5.921000000
C    -0.992000000     2.480000000     6.121000000
C    -0.076000000     2.770000000     5.128000000
H    -0.314000000     2.743000000     4.067000000
C    -0.562000000     2.367000000     7.395000000
H    -1.280000000     1.992000000     8.120000000
C     0.820000000     2.522000000     7.736000000
H     1.070000000     2.456000000     8.792000000
C     1.764000000     2.964000000     6.734000000
H     2.802000000     3.156000000     6.993000000
C     1.294000000     2.995000000     5.441000000
O     2.092000000     3.475000000     4.425000000
C     3.100000000     2.762000000     3.827000000
C     4.164000000     3.402000000     3.246000000
H     4.323000000     4.476000000     3.201000000
C     5.159000000     2.692000000     2.564000000
O     6.186000000     3.442000000     2.020000000
C     6.577000000     3.195000000     0.694000000
C     5.738000000     3.311000000    -0.362000000
H     4.742000000     3.691000000    -0.152000000
C     7.947000000     2.996000000     0.513000000
H     8.614000000     2.829000000     1.354000000
C     8.513000000     2.871000000    -0.751000000
H     9.568000000     2.694000000    -0.943000000
C     7.592000000     2.885000000    -1.867000000
H     7.962000000     2.774000000    -2.883000000
C     6.198000000     3.194000000    -1.669000000
O     5.348000000     3.329000000    -2.848000000
C     4.134000000     2.704000000    -3.039000000
C     2.985000000     3.525000000    -3.257000000
H     3.001000000     4.598000000    -3.081000000
C     1.727000000     2.920000000    -3.439000000
O     0.634000000     3.692000000    -3.651000000
C    -0.168000000     3.509000000    -4.736000000
C     0.422000000     3.320000000    -5.970000000
H     1.479000000     3.522000000    -6.120000000
C    -0.409000000     2.883000000    -7.033000000
H     0.018000000     2.572000000    -7.983000000
C    -1.792000000     2.655000000    -6.773000000
H    -2.417000000     2.504000000    -7.650000000
C    -2.356000000     2.927000000    -5.553000000
C    -1.539000000     3.277000000    -4.522000000
H    -1.947000000     3.343000000    -3.517000000
C    -0.365000000     2.608000000     0.766000000
H    -1.182000000     3.192000000     1.182000000
C    -0.706000000     1.237000000     0.530000000
H    -1.749000000     0.970000000     0.679000000
C     0.254000000     0.319000000     0.051000000
C    -0.021000000    -1.158000000    -0.125000000
H    -0.413000000    -1.346000000    -1.127000000
H     0.853000000    -1.785000000     0.061000000
H    -0.819000000    -1.486000000     0.545000000
C     1.538000000     0.820000000    -0.203000000
H     2.348000000     0.165000000    -0.513000000
C     1.942000000     2.132000000     0.114000000
H     2.965000000     2.487000000     0.011000000
C     0.955000000     3.041000000     0.599000000
C     1.291000000     4.417000000     0.980000000
O     2.260000000     4.964000000     0.465000000
O     0.500000000     5.084000000     1.636000000
O    -1.456000000     7.560000000     5.270000000
H    -1.349000000     7.042000000     4.472000000
H    -2.206000000     8.127000000     5.088000000
O     4.736000000     7.454000000     2.597000000
H     3.917000000     7.008000000     2.815000000
H     4.485000000     8.371000000     2.480000000
O     4.524000000     5.828000000     6.636000000
H     4.309000000     6.441000000     5.933000000
H     4.340000000     6.313000000     7.441000000
O    -4.827000000     5.945000000     2.367000000
H    -3.992000000     6.311000000     2.074000000
H    -4.587000000     5.152000000     2.845000000
O     3.732000000     8.104000000     5.259000000
H     3.234000000     8.425000000     6.011000000
H     3.106000000     7.574000000     4.766000000
O     1.752000000     7.010000000    -1.157000000
H     2.167000000     7.702000000    -0.642000000
H     1.933000000     6.207000000    -0.669000000
O    -3.270000000     8.600000000    -1.182000000
H    -2.897000000     8.883000000    -2.017000000
H    -3.346000000     7.650000000    -1.263000000
O     5.659000000     9.274000000    -0.463000000
H     5.104000000     8.616000000    -0.043000000
H     5.180000000     9.522000000    -1.254000000
O     2.118000000     6.577000000     3.632000000
H     2.034000000     5.697000000     3.999000000
H     1.431000000     6.626000000     2.968000000
O     2.969000000     9.234000000    -0.149000000
H     3.174000000    10.167000000    -0.214000000
H     2.568000000     9.136000000     0.714000000
O     4.457000000     6.346000000    -0.069000000
H     4.992000000     6.390000000     0.723000000
H     3.656000000     5.900000000     0.208000000
O     6.406000000     6.435000000    -2.758000000
H     6.952000000     6.716000000    -2.024000000
H     5.517000000     6.422000000    -2.405000000
O     3.945000000     7.522000000    -3.013000000
H     3.296000000     7.144000000    -2.420000000
H     4.083000000     8.410000000    -2.683000000
O    -0.282000000     6.875000000    -2.860000000
H    -0.079000000     6.546000000    -3.736000000
H     0.567000000     6.929000000    -2.421000000
O    -3.730000000     6.031000000    -2.011000000
H    -2.895000000     5.680000000    -1.701000000
H    -3.626000000     6.095000000    -2.960000000
O     2.071000000     9.770000000     2.271000000
H     2.129000000    10.714000000     2.419000000
H     1.502000000     9.451000000     2.971000000
O    -1.268000000     6.103000000    -0.229000000
H    -0.647000000     5.668000000     0.356000000
H    -0.794000000     6.193000000    -1.056000000
O    -2.613000000     7.340000000     1.459000000
H    -2.936000000     8.191000000     1.161000000
H    -2.141000000     6.986000000     0.705000000
O    -1.381000000     5.555000000     3.300000000
H    -1.958000000     5.960000000     2.653000000
H    -0.591000000     5.330000000     2.810000000
