218
-1463.55152
C    -1.645000000     1.415000000     4.329000000
H    -0.896000000     1.004000000     5.001000000
C    -2.450000000     0.582000000     3.552000000
C    -3.487000000     1.187000000     2.906000000
H    -4.196000000     0.633000000     2.296000000
C    -2.143000000    -0.905000000     3.300000000
O    -1.303000000    -1.449000000     4.369000000
H    -1.549000000    -1.039000000     2.384000000
O    -3.346000000    -1.701000000     3.169000000
C    -3.341000000    -2.605000000     2.115000000
C    -3.904000000    -2.128000000     0.960000000
H    -4.486000000    -1.211000000     0.993000000
C    -3.761000000    -2.874000000    -0.213000000
O    -4.312000000    -2.358000000    -1.370000000
C    -3.059000000    -4.053000000    -0.250000000
C    -2.714000000    -4.744000000    -1.587000000
H    -2.317000000    -5.725000000    -1.319000000
C    -1.666000000    -3.990000000    -2.310000000
C    -0.392000000    -4.400000000    -2.091000000
H    -0.204000000    -5.114000000    -1.293000000
H    -3.587000000    -4.768000000    -2.244000000
C    -2.498000000    -4.512000000     0.945000000
H    -1.964000000    -5.458000000     0.994000000
C    -2.531000000    -3.757000000     2.116000000
C    -1.664000000    -4.156000000     3.361000000
H    -1.454000000    -5.225000000     3.425000000
H    -2.199000000    -3.882000000     4.272000000
C    -0.308000000    -3.450000000     3.354000000
C     0.814000000    -4.004000000     2.673000000
H     0.727000000    -4.981000000     2.204000000
C    -0.248000000    -2.210000000     4.001000000
C     1.010000000    -1.539000000     3.984000000
H     1.112000000    -0.602000000     4.526000000
C     2.122000000    -2.062000000     3.339000000
O     3.232000000    -1.360000000     3.396000000
C     3.652000000    -0.708000000     2.180000000
C     4.180000000     0.665000000     2.383000000
C     5.130000000     1.263000000     1.501000000
H     5.559000000     0.632000000     0.726000000
C     3.664000000     1.437000000     3.389000000
H     3.018000000     1.017000000     4.156000000
O     4.594000000    -1.565000000     1.528000000
H     2.757000000    -0.611000000     1.547000000
C     2.039000000    -3.342000000     2.812000000
C     3.276000000    -4.068000000     2.217000000
H     3.173000000    -5.152000000     2.137000000
H     4.139000000    -3.826000000     2.841000000
C     3.410000000    -3.480000000     0.813000000
C     2.872000000    -4.197000000    -0.250000000
H     2.216000000    -5.037000000    -0.037000000
C     4.139000000    -2.291000000     0.508000000
C     4.115000000    -1.863000000    -0.766000000
H     4.499000000    -0.863000000    -0.952000000
C     3.549000000    -2.624000000    -1.817000000
O     3.445000000    -1.953000000    -3.053000000
C     2.167000000    -1.290000000    -3.214000000
C     2.373000000     0.226000000    -3.540000000
C     3.628000000     0.783000000    -3.475000000
H     4.552000000     0.257000000    -3.249000000
C     1.233000000     0.986000000    -3.725000000
H     0.266000000     0.496000000    -3.797000000
O     1.399000000    -1.909000000    -4.196000000
H     1.674000000    -1.328000000    -2.232000000
C     2.847000000    -3.782000000    -1.568000000
C     1.993000000    -4.432000000    -2.638000000
H     1.835000000    -5.439000000    -2.246000000
H     2.612000000    -4.530000000    -3.532000000
C     0.644000000    -3.850000000    -2.807000000
C     0.442000000    -2.802000000    -3.738000000
C    -0.819000000    -2.393000000    -3.953000000
H    -1.075000000    -1.588000000    -4.638000000
C    -1.894000000    -2.921000000    -3.205000000
O    -3.086000000    -2.207000000    -3.356000000
C    -3.535000000    -1.449000000    -2.205000000
H    -2.709000000    -1.102000000    -1.566000000
C    -4.279000000    -0.289000000    -2.682000000
C    -5.348000000     0.206000000    -1.905000000
H    -5.480000000    -0.345000000    -0.977000000
C    -3.958000000     0.415000000    -3.838000000
H    -3.085000000     0.118000000    -4.414000000
C    -4.632000000     1.552000000    -4.219000000
O    -4.299000000     2.233000000    -5.305000000
C    -5.718000000     2.048000000    -3.458000000
H    -6.272000000     2.939000000    -3.741000000
C    -6.120000000     1.314000000    -2.299000000
O    -7.169000000     1.672000000    -1.549000000
C    -7.104000000     1.856000000    -0.188000000
C    -5.973000000     2.427000000     0.376000000
H    -5.195000000     2.826000000    -0.270000000
C    -8.178000000     1.408000000     0.522000000
H    -9.050000000     1.033000000    -0.007000000
C    -8.118000000     1.438000000     1.896000000
H    -9.002000000     1.153000000     2.461000000
C    -6.902000000     1.929000000     2.565000000
H    -6.901000000     2.092000000     3.639000000
C    -5.830000000     2.463000000     1.771000000
O    -4.770000000     3.171000000     2.294000000
C    -3.747000000     2.538000000     3.033000000
C    -2.746000000     3.370000000     3.452000000
H    -2.797000000     4.450000000     3.335000000
C    -1.725000000     2.836000000     4.211000000
O    -0.917000000     3.698000000     4.932000000
C     0.273000000     3.491000000     5.478000000
C     1.430000000     3.707000000     4.731000000
H     1.292000000     4.077000000     3.718000000
C     0.315000000     3.069000000     6.783000000
H    -0.618000000     2.957000000     7.329000000
C     1.544000000     2.944000000     7.445000000
H     1.579000000     2.692000000     8.502000000
C     2.762000000     3.059000000     6.615000000
H     3.770000000     2.942000000     7.004000000
C     2.669000000     3.447000000     5.295000000
O     3.805000000     3.630000000     4.668000000
C     4.111000000     2.815000000     3.610000000
C     5.083000000     3.323000000     2.796000000
H     5.489000000     4.310000000     3.003000000
C     5.499000000     2.608000000     1.675000000
O     6.380000000     3.198000000     0.877000000
C     6.581000000     2.720000000    -0.406000000
C     5.683000000     2.917000000    -1.396000000
H     4.763000000     3.436000000    -1.143000000
C     7.754000000     2.065000000    -0.712000000
H     8.545000000     1.853000000     0.003000000
C     8.009000000     1.713000000    -2.055000000
H     8.952000000     1.335000000    -2.442000000
C     7.091000000     1.944000000    -3.087000000
H     7.125000000     1.578000000    -4.110000000
C     5.897000000     2.543000000    -2.761000000
O     4.952000000     2.766000000    -3.697000000
C     3.752000000     2.182000000    -3.567000000
C     2.598000000     2.961000000    -3.636000000
H     2.730000000     4.040000000    -3.669000000
C     1.393000000     2.386000000    -3.850000000
O     0.274000000     3.175000000    -4.152000000
C    -0.656000000     2.742000000    -5.120000000
C    -0.269000000     2.428000000    -6.435000000
H     0.771000000     2.372000000    -6.747000000
C    -1.263000000     2.219000000    -7.413000000
H    -1.063000000     1.996000000    -8.458000000
C    -2.599000000     2.104000000    -6.951000000
H    -3.334000000     1.774000000    -7.681000000
C    -2.966000000     2.344000000    -5.615000000
C    -1.999000000     2.774000000    -4.712000000
H    -2.157000000     3.031000000    -3.668000000
C    -1.378000000     2.194000000     0.304000000
H    -2.310000000     2.750000000     0.364000000
C    -1.286000000     0.825000000     0.184000000
H    -2.160000000     0.200000000     0.022000000
C    -0.066000000     0.175000000     0.026000000
C    -0.062000000    -1.311000000    -0.219000000
H    -1.013000000    -1.711000000     0.139000000
H    -0.161000000    -1.529000000    -1.284000000
H     0.795000000    -1.840000000     0.203000000
C     1.096000000     0.924000000     0.014000000
H     2.036000000     0.440000000    -0.238000000
C     1.092000000     2.312000000     0.135000000
H     1.945000000     2.985000000     0.158000000
C    -0.133000000     2.916000000     0.297000000
C    -0.172000000     4.420000000     0.653000000
O     0.793000000     4.929000000     1.214000000
O    -1.155000000     5.140000000     0.532000000
O    -3.851000000     6.584000000     4.182000000
H    -3.493000000     6.759000000     3.312000000
H    -4.077000000     7.448000000     4.526000000
O     2.724000000     6.438000000     3.125000000
H     2.543000000     6.665000000     2.213000000
H     2.550000000     5.498000000     3.177000000
O    -0.377000000     6.541000000     5.412000000
H    -0.899000000     5.739000000     5.370000000
H    -0.218000000     6.771000000     4.497000000
O    -1.877000000    10.029000000     2.213000000
H    -2.776000000     9.702000000     2.183000000
H    -1.714000000    10.196000000     3.141000000
O    -0.988000000     6.592000000    -1.571000000
H    -0.313000000     7.265000000    -1.478000000
H    -1.095000000     6.237000000    -0.689000000
O    -2.721000000     9.226000000    -3.025000000
H    -3.643000000     9.147000000    -2.781000000
H    -2.353000000     8.360000000    -2.851000000
O     5.283000000     5.881000000     0.531000000
H     4.418000000     6.273000000     0.413000000
H     5.185000000     4.985000000     0.208000000
O    -4.574000000     8.381000000     0.469000000
H    -4.621000000     9.174000000    -0.065000000
H    -5.319000000     8.449000000     1.066000000
O    -0.289000000     7.053000000     2.818000000
H     0.108000000     6.333000000     2.329000000
H    -1.178000000     7.118000000     2.470000000
O     0.703000000     8.531000000    -0.906000000
H     1.448000000     8.922000000    -1.363000000
H     0.676000000     8.983000000    -0.063000000
O     2.654000000     6.418000000     0.366000000
H     2.264000000     6.867000000    -0.385000000
H     2.031000000     5.723000000     0.579000000
O     3.374000000     6.549000000    -2.734000000
H     2.731000000     6.926000000    -3.335000000
H     3.804000000     7.306000000    -2.338000000
O     0.406000000     6.027000000    -3.964000000
H     0.142000000     5.146000000    -4.230000000
H    -0.183000000     6.245000000    -3.241000000
O    -4.211000000     5.125000000    -3.721000000
H    -4.232000000     4.294000000    -4.195000000
H    -3.556000000     5.649000000    -4.183000000
O     1.559000000     9.246000000     3.380000000
H     0.799000000     8.665000000     3.353000000
H     2.097000000     8.904000000     4.094000000
O    -3.537000000     5.219000000    -0.522000000
H    -2.654000000     5.089000000    -0.177000000
H    -3.413000000     5.321000000    -1.466000000
O    -5.892000000     5.586000000     0.904000000
H    -5.014000000     5.493000000     0.537000000
H    -5.822000000     6.326000000     1.508000000
O     4.450000000     8.533000000     3.455000000
H     5.131000000     8.133000000     3.996000000
H     3.880000000     7.804000000     3.210000000
O    -2.690000000     6.951000000     1.810000000
H    -3.187000000     7.460000000     1.169000000
H    -2.169000000     6.346000000     1.282000000
