218
-1478.89222
C    -2.610000000     2.032000000     3.793000000
H    -1.958000000     1.555000000     4.520000000
C    -3.125000000     1.129000000     2.885000000
C    -3.818000000     1.672000000     1.777000000
H    -4.181000000     0.980000000     1.021000000
C    -2.781000000    -0.392000000     2.871000000
O    -2.494000000    -0.862000000     4.178000000
H    -1.931000000    -0.598000000     2.204000000
O    -3.862000000    -1.149000000     2.341000000
C    -3.558000000    -2.096000000     1.382000000
C    -4.057000000    -1.835000000     0.125000000
H    -4.593000000    -0.909000000    -0.068000000
C    -3.723000000    -2.697000000    -0.958000000
O    -3.984000000    -2.299000000    -2.260000000
C    -2.821000000    -3.767000000    -0.699000000
C    -2.370000000    -4.716000000    -1.830000000
H    -2.279000000    -5.757000000    -1.513000000
C    -1.034000000    -4.277000000    -2.428000000
C     0.074000000    -4.755000000    -1.810000000
H     0.007000000    -5.518000000    -1.038000000
H    -3.077000000    -4.720000000    -2.662000000
C    -2.437000000    -4.055000000     0.609000000
H    -1.856000000    -4.958000000     0.777000000
C    -2.780000000    -3.214000000     1.662000000
C    -2.560000000    -3.616000000     3.145000000
H    -2.484000000    -4.703000000     3.216000000
H    -3.421000000    -3.339000000     3.756000000
C    -1.287000000    -2.982000000     3.637000000
C    -0.064000000    -3.724000000     3.514000000
H    -0.192000000    -4.720000000     3.096000000
C    -1.295000000    -1.691000000     4.253000000
C    -0.012000000    -1.101000000     4.562000000
H    -0.010000000    -0.032000000     4.760000000
C     1.113000000    -1.830000000     4.411000000
O     2.301000000    -1.173000000     4.560000000
C     2.822000000    -0.480000000     3.413000000
C     3.228000000     0.988000000     3.840000000
C     4.022000000     1.631000000     2.870000000
H     4.479000000     1.043000000     2.078000000
C     2.648000000     1.625000000     4.909000000
H     1.999000000     1.125000000     5.623000000
O     3.902000000    -1.295000000     2.950000000
H     2.046000000    -0.430000000     2.636000000
C     1.132000000    -3.114000000     3.915000000
C     2.466000000    -3.765000000     3.504000000
H     2.390000000    -4.852000000     3.578000000
H     3.259000000    -3.533000000     4.218000000
C     2.873000000    -3.328000000     2.088000000
C     2.637000000    -4.155000000     0.994000000
H     1.958000000    -4.979000000     1.198000000
C     3.612000000    -2.104000000     1.880000000
C     3.915000000    -1.689000000     0.584000000
H     4.353000000    -0.707000000     0.428000000
C     3.653000000    -2.611000000    -0.410000000
O     4.021000000    -2.229000000    -1.682000000
C     3.026000000    -1.501000000    -2.436000000
C     3.523000000    -0.242000000    -3.121000000
C     4.382000000     0.674000000    -2.518000000
H     4.675000000     0.493000000    -1.487000000
C     2.909000000     0.134000000    -4.301000000
H     2.180000000    -0.508000000    -4.789000000
O     2.491000000    -2.420000000    -3.400000000
H     2.183000000    -1.344000000    -1.747000000
C     2.991000000    -3.845000000    -0.261000000
C     2.620000000    -4.685000000    -1.498000000
H     2.500000000    -5.736000000    -1.227000000
H     3.435000000    -4.586000000    -2.219000000
C     1.316000000    -4.150000000    -2.159000000
C     1.330000000    -3.103000000    -3.139000000
C     0.143000000    -2.608000000    -3.687000000
H     0.161000000    -1.752000000    -4.356000000
C    -0.996000000    -3.258000000    -3.441000000
O    -2.170000000    -2.662000000    -3.813000000
C    -2.859000000    -1.650000000    -2.936000000
H    -2.142000000    -1.201000000    -2.233000000
C    -3.350000000    -0.406000000    -3.767000000
C    -4.550000000     0.245000000    -3.510000000
H    -5.253000000    -0.041000000    -2.732000000
C    -2.484000000     0.232000000    -4.658000000
H    -1.582000000    -0.315000000    -4.922000000
C    -2.897000000     1.365000000    -5.349000000
O    -2.065000000     2.043000000    -6.193000000
C    -4.109000000     1.992000000    -5.169000000
H    -4.440000000     2.880000000    -5.700000000
C    -4.954000000     1.429000000    -4.182000000
O    -6.077000000     2.144000000    -3.820000000
C    -6.327000000     2.260000000    -2.435000000
C    -5.356000000     2.909000000    -1.660000000
H    -4.478000000     3.390000000    -2.085000000
C    -7.495000000     1.788000000    -1.914000000
H    -8.197000000     1.220000000    -2.520000000
C    -7.721000000     1.854000000    -0.537000000
H    -8.568000000     1.476000000     0.031000000
C    -6.667000000     2.318000000     0.292000000
H    -6.818000000     2.367000000     1.368000000
C    -5.522000000     3.000000000    -0.309000000
O    -4.575000000     3.643000000     0.494000000
C    -3.973000000     3.031000000     1.612000000
C    -3.426000000     3.876000000     2.601000000
H    -3.439000000     4.933000000     2.347000000
C    -2.633000000     3.437000000     3.644000000
O    -2.183000000     4.348000000     4.550000000
C    -1.357000000     4.031000000     5.610000000
C     0.002000000     4.108000000     5.417000000
H     0.369000000     4.507000000     4.475000000
C    -1.869000000     3.420000000     6.755000000
H    -2.916000000     3.230000000     6.977000000
C    -0.983000000     2.991000000     7.711000000
H    -1.455000000     2.495000000     8.555000000
C     0.433000000     3.015000000     7.536000000
H     1.079000000     2.504000000     8.246000000
C     0.917000000     3.508000000     6.303000000
O     2.285000000     3.700000000     6.008000000
C     2.860000000     3.021000000     4.966000000
C     3.637000000     3.731000000     4.020000000
H     3.859000000     4.794000000     4.044000000
C     4.277000000     2.998000000     3.048000000
O     5.109000000     3.705000000     2.142000000
C     5.779000000     3.063000000     1.067000000
C     5.274000000     3.188000000    -0.220000000
H     4.391000000     3.802000000    -0.374000000
C     6.923000000     2.323000000     1.364000000
H     7.248000000     2.348000000     2.401000000
C     7.660000000     1.674000000     0.338000000
H     8.521000000     1.020000000     0.447000000
C     7.170000000     1.798000000    -1.001000000
H     7.705000000     1.377000000    -1.849000000
C     6.009000000     2.566000000    -1.241000000
O     5.561000000     2.812000000    -2.517000000
C     4.735000000     1.903000000    -3.142000000
C     4.113000000     2.181000000    -4.386000000
H     4.160000000     3.217000000    -4.713000000
C     3.226000000     1.284000000    -4.986000000
O     2.658000000     1.655000000    -6.181000000
C     1.421000000     1.253000000    -6.708000000
C     1.355000000     0.319000000    -7.726000000
H     2.262000000    -0.076000000    -8.177000000
C     0.113000000     0.056000000    -8.288000000
H     0.096000000    -0.763000000    -9.003000000
C    -1.053000000     0.586000000    -7.726000000
H    -2.031000000     0.237000000    -8.046000000
C    -0.935000000     1.527000000    -6.694000000
C     0.306000000     1.799000000    -6.189000000
H     0.242000000     2.555000000    -5.411000000
C    -1.486000000     1.643000000    -1.335000000
H    -2.469000000     1.916000000    -1.711000000
C    -1.280000000     0.454000000    -0.626000000
H    -2.162000000    -0.016000000    -0.197000000
C    -0.018000000    -0.026000000    -0.382000000
C     0.237000000    -1.279000000     0.448000000
H     0.621000000    -1.071000000     1.449000000
H    -0.672000000    -1.853000000     0.640000000
H     0.802000000    -2.020000000    -0.120000000
C     1.135000000     0.724000000    -0.704000000
H     2.138000000     0.437000000    -0.399000000
C     0.881000000     1.889000000    -1.449000000
H     1.728000000     2.431000000    -1.863000000
C    -0.381000000     2.356000000    -1.759000000
C    -0.478000000     3.629000000    -2.542000000
O     0.530000000     4.203000000    -2.949000000
O    -1.563000000     4.121000000    -2.653000000
O    -2.046000000     7.495000000     2.122000000
H    -1.312000000     7.585000000     2.730000000
H    -1.723000000     6.905000000     1.442000000
O     1.857000000     4.288000000    -7.829000000
H     1.850000000     3.520000000    -7.258000000
H     2.414000000     4.035000000    -8.565000000
O     0.656000000     2.754000000     1.777000000
H    -0.229000000     2.544000000     2.075000000
H     0.699000000     2.400000000     0.888000000
O     0.650000000     8.649000000    -1.211000000
H     0.388000000     8.112000000    -1.959000000
H    -0.176000000     8.915000000    -0.806000000
O    -5.199000000     5.782000000    -4.043000000
H    -5.891000000     5.212000000    -3.706000000
H    -4.884000000     5.337000000    -4.830000000
O    -4.677000000     6.606000000     0.142000000
H    -4.039000000     6.669000000    -0.568000000
H    -4.749000000     5.668000000     0.318000000
O     0.233000000     7.915000000    -5.657000000
H     0.184000000     7.553000000    -4.772000000
H     0.112000000     8.857000000    -5.537000000
O     3.204000000     7.611000000    -4.665000000
H     3.357000000     8.242000000    -5.369000000
H     2.617000000     6.960000000    -5.050000000
O    -3.412000000     4.780000000    -7.194000000
H    -3.371000000     5.726000000    -7.333000000
H    -2.569000000     4.559000000    -6.799000000
O     2.367000000     5.122000000     1.566000000
H     1.663000000     4.487000000     1.694000000
H     2.396000000     5.259000000     0.619000000
O     1.957000000     5.582000000    -1.074000000
H     1.519000000     6.370000000    -1.396000000
H     1.590000000     4.872000000    -1.601000000
O    -1.095000000     6.076000000     0.162000000
H    -1.824000000     6.205000000    -0.443000000
H    -0.504000000     5.480000000    -0.299000000
O     0.802000000     6.811000000    -8.128000000
H     1.177000000     5.945000000    -7.972000000
H     0.511000000     7.105000000    -7.265000000
O    -0.036000000     6.920000000    -2.966000000
H    -0.007000000     5.986000000    -3.170000000
H    -0.927000000     7.188000000    -3.194000000
O     1.681000000     5.394000000    -5.085000000
H     1.600000000     4.868000000    -4.290000000
H     0.833000000     5.302000000    -5.521000000
O     4.584000000     5.690000000    -6.904000000
H     4.769000000     4.873000000    -7.367000000
H     3.674000000     5.604000000    -6.621000000
O    -1.377000000     4.878000000    -5.507000000
H    -1.392000000     4.427000000    -4.663000000
H    -1.540000000     5.796000000    -5.290000000
O    -2.544000000     7.965000000    -4.423000000
H    -2.496000000     8.432000000    -5.257000000
H    -3.472000000     7.988000000    -4.190000000
O    -3.100000000     6.106000000    -1.967000000
H    -2.617000000     5.310000000    -2.188000000
H    -3.787000000     6.163000000    -2.631000000
