218
-1467.43434
C    -3.270000000     0.971000000     3.868000000
H    -2.645000000     0.449000000     4.587000000
C    -3.687000000     0.408000000     2.667000000
C    -4.583000000     1.143000000     1.815000000
H    -4.931000000     0.744000000     0.866000000
C    -3.210000000    -0.901000000     2.276000000
O    -2.855000000    -1.739000000     3.479000000
H    -2.403000000    -0.815000000     1.533000000
O    -4.299000000    -1.749000000     1.703000000
C    -4.002000000    -2.486000000     0.589000000
C    -4.150000000    -1.882000000    -0.664000000
H    -4.619000000    -0.913000000    -0.814000000
C    -3.692000000    -2.427000000    -1.882000000
O    -3.695000000    -1.690000000    -3.064000000
C    -2.892000000    -3.586000000    -1.830000000
C    -2.153000000    -4.214000000    -3.026000000
H    -1.986000000    -5.283000000    -2.876000000
C    -0.764000000    -3.505000000    -3.237000000
C     0.411000000    -4.134000000    -2.770000000
H     0.406000000    -5.113000000    -2.298000000
H    -2.829000000    -4.146000000    -3.881000000
C    -2.690000000    -4.162000000    -0.542000000
H    -2.178000000    -5.120000000    -0.555000000
C    -3.160000000    -3.604000000     0.611000000
C    -2.845000000    -4.301000000     1.930000000
H    -2.599000000    -5.349000000     1.743000000
H    -3.744000000    -4.203000000     2.542000000
C    -1.643000000    -3.654000000     2.653000000
C    -0.402000000    -4.313000000     2.506000000
H    -0.291000000    -5.144000000     1.814000000
C    -1.740000000    -2.487000000     3.398000000
C    -0.590000000    -2.003000000     4.125000000
H    -0.638000000    -1.090000000     4.712000000
C     0.629000000    -2.656000000     3.910000000
O     1.698000000    -1.972000000     4.348000000
C     2.461000000    -1.229000000     3.283000000
C     2.773000000     0.114000000     3.826000000
C     3.806000000     0.799000000     3.192000000
H     4.350000000     0.284000000     2.405000000
C     2.034000000     0.728000000     4.842000000
H     1.210000000     0.220000000     5.336000000
O     3.574000000    -1.976000000     2.877000000
H     1.819000000    -1.059000000     2.406000000
C     0.738000000    -3.799000000     3.136000000
C     2.200000000    -4.415000000     2.868000000
H     2.203000000    -5.495000000     2.712000000
H     2.849000000    -4.203000000     3.719000000
C     2.810000000    -3.760000000     1.562000000
C     2.619000000    -4.309000000     0.257000000
H     1.896000000    -5.113000000     0.149000000
C     3.487000000    -2.527000000     1.642000000
C     3.957000000    -1.828000000     0.555000000
H     4.412000000    -0.844000000     0.626000000
C     3.698000000    -2.345000000    -0.733000000
O     4.188000000    -1.680000000    -1.822000000
C     3.264000000    -0.814000000    -2.576000000
C     3.907000000     0.508000000    -2.891000000
C     4.979000000     0.959000000    -2.112000000
H     5.326000000     0.362000000    -1.273000000
C     3.408000000     1.300000000    -3.945000000
H     2.572000000     0.909000000    -4.519000000
O     2.899000000    -1.621000000    -3.691000000
H     2.344000000    -0.722000000    -1.980000000
C     3.058000000    -3.606000000    -0.872000000
C     2.808000000    -4.235000000    -2.227000000
H     2.692000000    -5.316000000    -2.127000000
H     3.682000000    -4.070000000    -2.860000000
C     1.610000000    -3.559000000    -2.905000000
C     1.722000000    -2.401000000    -3.651000000
C     0.607000000    -1.833000000    -4.195000000
H     0.705000000    -0.887000000    -4.723000000
C    -0.663000000    -2.298000000    -3.965000000
O    -1.779000000    -1.571000000    -4.390000000
C    -2.564000000    -0.866000000    -3.366000000
H    -2.016000000    -0.889000000    -2.413000000
C    -2.951000000     0.601000000    -3.815000000
C    -4.223000000     1.171000000    -3.476000000
H    -5.032000000     0.578000000    -3.055000000
C    -1.933000000     1.420000000    -4.311000000
H    -0.930000000     1.039000000    -4.479000000
C    -2.091000000     2.791000000    -4.363000000
O    -1.056000000     3.566000000    -4.833000000
C    -3.294000000     3.376000000    -4.029000000
H    -3.418000000     4.447000000    -4.171000000
C    -4.390000000     2.555000000    -3.605000000
O    -5.629000000     3.145000000    -3.400000000
C    -6.340000000     2.936000000    -2.260000000
C    -5.727000000     3.217000000    -0.997000000
H    -4.874000000     3.887000000    -0.922000000
C    -7.520000000     2.218000000    -2.303000000
H    -7.911000000     2.077000000    -3.307000000
C    -8.184000000     1.848000000    -1.176000000
H    -9.132000000     1.315000000    -1.180000000
C    -7.644000000     2.188000000     0.081000000
H    -8.085000000     1.955000000     1.047000000
C    -6.404000000     2.848000000     0.183000000
O    -5.933000000     3.165000000     1.431000000
C    -5.045000000     2.391000000     2.195000000
C    -4.605000000     2.957000000     3.397000000
H    -4.866000000     3.965000000     3.707000000
C    -3.693000000     2.228000000     4.236000000
O    -3.381000000     2.725000000     5.457000000
C    -2.200000000     2.296000000     6.105000000
C    -0.905000000     2.596000000     5.631000000
H    -0.810000000     3.007000000     4.629000000
C    -2.349000000     1.680000000     7.344000000
H    -3.333000000     1.297000000     7.600000000
C    -1.158000000     1.370000000     8.136000000
H    -1.290000000     0.755000000     9.023000000
C     0.107000000     1.815000000     7.731000000
H     0.945000000     1.568000000     8.379000000
C     0.172000000     2.325000000     6.462000000
O     1.426000000     2.738000000     5.937000000
C     2.306000000     2.047000000     5.146000000
C     3.371000000     2.683000000     4.560000000
H     3.555000000     3.715000000     4.850000000
C     4.095000000     2.102000000     3.523000000
O     5.021000000     2.824000000     2.871000000
C     5.956000000     2.318000000     2.005000000
C     5.783000000     2.661000000     0.716000000
H     4.985000000     3.359000000     0.479000000
C     6.962000000     1.448000000     2.406000000
H     7.018000000     1.032000000     3.409000000
C     7.818000000     1.001000000     1.404000000
H     8.589000000     0.279000000     1.661000000
C     7.740000000     1.416000000     0.067000000
H     8.488000000     1.019000000    -0.615000000
C     6.673000000     2.267000000    -0.250000000
O     6.571000000     2.616000000    -1.610000000
C     5.582000000     2.193000000    -2.444000000
C     5.178000000     2.947000000    -3.554000000
H     5.691000000     3.891000000    -3.720000000
C     4.025000000     2.489000000    -4.241000000
O     3.705000000     3.144000000    -5.425000000
C     2.410000000     3.093000000    -5.940000000
C     2.221000000     2.685000000    -7.285000000
H     3.146000000     2.683000000    -7.855000000
C     0.914000000     2.503000000    -7.824000000
H     0.738000000     1.993000000    -8.768000000
C    -0.156000000     2.749000000    -6.951000000
H    -1.174000000     2.559000000    -7.281000000
C     0.025000000     3.251000000    -5.628000000
C     1.324000000     3.367000000    -5.121000000
H     1.473000000     3.608000000    -4.071000000
C    -1.662000000     2.469000000    -1.168000000
H    -2.688000000     2.827000000    -1.203000000
C    -1.509000000     1.186000000    -0.769000000
H    -2.473000000     0.726000000    -0.566000000
C    -0.268000000     0.626000000    -0.716000000
C    -0.053000000    -0.865000000    -0.334000000
H     0.318000000    -1.514000000    -1.129000000
H     0.714000000    -1.040000000     0.423000000
H    -0.949000000    -1.252000000     0.156000000
C     0.837000000     1.406000000    -1.045000000
H     1.839000000     1.002000000    -0.924000000
C     0.659000000     2.730000000    -1.329000000
H     1.551000000     3.292000000    -1.594000000
C    -0.599000000     3.326000000    -1.381000000
C    -0.752000000     4.844000000    -1.597000000
O     0.208000000     5.416000000    -2.035000000
O    -1.837000000     5.381000000    -1.334000000
O    -0.961000000     8.716000000    -4.687000000
H    -1.757000000     8.616000000    -4.163000000
H    -0.384000000     8.017000000    -4.380000000
O    -0.518000000     3.075000000     1.899000000
H    -1.147000000     3.781000000     1.750000000
H    -0.720000000     2.428000000     1.223000000
O    -6.361000000     6.266000000     0.774000000
H    -5.675000000     6.471000000     0.138000000
H    -5.890000000     6.108000000     1.592000000
O     0.130000000     6.469000000    -4.301000000
H    -0.162000000     5.658000000    -4.716000000
H     0.343000000     6.216000000    -3.402000000
O     1.800000000     4.811000000     1.999000000
H     1.309000000     3.989000000     1.983000000
H     2.613000000     4.595000000     2.456000000
O    -2.187000000     5.246000000     1.452000000
H    -1.961000000     5.316000000     0.525000000
H    -2.992000000     5.755000000     1.541000000
O     1.516000000    10.232000000     1.399000000
H     0.961000000    10.348000000     0.629000000
H     1.126000000     9.494000000     1.867000000
O     4.521000000     6.348000000    -4.483000000
H     5.057000000     5.671000000    -4.895000000
H     3.742000000     6.407000000    -5.037000000
O    -0.346000000     5.726000000     3.922000000
H     0.383000000     5.278000000     3.492000000
H    -1.058000000     5.691000000     3.284000000
O     2.115000000     6.260000000    -0.486000000
H     1.579000000     5.891000000    -1.189000000
H     1.977000000     5.669000000     0.255000000
O     4.642000000     5.803000000     0.218000000
H     3.776000000     5.980000000    -0.151000000
H     4.466000000     5.509000000     1.112000000
O    -0.916000000     8.014000000    -1.404000000
H    -1.569000000     8.114000000    -2.097000000
H    -0.825000000     7.068000000    -1.295000000
O    -3.181000000     7.888000000     1.647000000
H    -2.504000000     8.483000000     1.325000000
H    -3.916000000     8.015000000     1.047000000
O    -3.550000000     9.102000000    -2.384000000
H    -3.786000000     9.800000000    -1.773000000
H    -4.371000000     8.880000000    -2.823000000
O     1.797000000     9.293000000    -1.851000000
H     1.274000000     8.510000000    -1.679000000
H     1.424000000     9.961000000    -1.277000000
O     4.301000000     9.058000000    -0.896000000
H     3.386000000     8.894000000    -1.124000000
H     4.261000000     9.721000000    -0.207000000
O     0.378000000     8.069000000    -7.011000000
H     0.085000000     8.631000000    -6.293000000
H    -0.223000000     7.324000000    -6.992000000
O    -4.182000000     6.503000000    -0.919000000
H    -3.437000000     6.011000000    -1.264000000
H    -4.195000000     7.310000000    -1.433000000
O    -1.215000000     9.809000000     0.830000000
H    -1.191000000    10.646000000     0.366000000
H    -1.110000000     9.152000000     0.142000000
