218
-1445.73409
C    -4.055000000    -0.842000000     3.819000000
H    -3.786000000    -1.872000000     4.037000000
C    -4.098000000    -0.382000000     2.495000000
C    -4.256000000     0.946000000     2.196000000
H    -4.148000000     1.212000000     1.147000000
C    -3.985000000    -1.402000000     1.346000000
O    -3.977000000    -2.861000000     1.777000000
H    -2.994000000    -1.266000000     0.888000000
O    -4.913000000    -1.252000000     0.237000000
C    -4.378000000    -1.383000000    -0.971000000
C    -4.262000000    -0.232000000    -1.773000000
H    -4.562000000     0.742000000    -1.395000000
C    -3.587000000    -0.228000000    -3.015000000
O    -3.373000000     1.017000000    -3.529000000
C    -3.160000000    -1.447000000    -3.528000000
C    -2.428000000    -1.349000000    -4.845000000
H    -2.685000000    -2.322000000    -5.268000000
C    -0.934000000    -1.047000000    -4.736000000
C     0.009000000    -2.048000000    -4.695000000
H    -0.380000000    -3.063000000    -4.714000000
H    -2.955000000    -0.573000000    -5.404000000
C    -3.374000000    -2.597000000    -2.756000000
H    -3.078000000    -3.533000000    -3.223000000
C    -3.855000000    -2.588000000    -1.438000000
C    -4.128000000    -3.957000000    -0.758000000
H    -4.199000000    -4.749000000    -1.507000000
H    -5.098000000    -4.006000000    -0.258000000
C    -2.997000000    -4.269000000     0.103000000
C    -1.900000000    -4.959000000    -0.349000000
H    -1.891000000    -5.326000000    -1.372000000
C    -2.944000000    -3.637000000     1.330000000
C    -1.802000000    -3.827000000     2.112000000
H    -1.721000000    -3.287000000     3.052000000
C    -0.740000000    -4.553000000     1.718000000
O     0.380000000    -4.556000000     2.532000000
C     1.401000000    -3.586000000     2.171000000
C     1.989000000    -2.832000000     3.393000000
C     3.181000000    -2.044000000     3.237000000
H     3.810000000    -2.094000000     2.352000000
C     1.163000000    -2.700000000     4.491000000
H     0.302000000    -3.316000000     4.737000000
O     2.511000000    -4.196000000     1.488000000
H     0.927000000    -2.807000000     1.555000000
C    -0.747000000    -5.119000000     0.435000000
C     0.519000000    -5.732000000    -0.168000000
H     0.176000000    -6.437000000    -0.928000000
H     1.075000000    -6.355000000     0.536000000
C     1.511000000    -4.666000000    -0.748000000
C     1.539000000    -4.367000000    -2.132000000
H     0.845000000    -4.951000000    -2.731000000
C     2.509000000    -4.088000000     0.082000000
C     3.385000000    -3.172000000    -0.468000000
H     4.111000000    -2.676000000     0.171000000
C     3.210000000    -2.778000000    -1.818000000
O     4.001000000    -1.701000000    -2.262000000
C     3.390000000    -0.379000000    -2.477000000
C     4.191000000     0.734000000    -1.888000000
C     5.042000000     0.532000000    -0.796000000
H     5.186000000    -0.444000000    -0.340000000
C     3.962000000     2.027000000    -2.395000000
H     3.212000000     2.123000000    -3.176000000
O     3.114000000    -0.138000000    -3.866000000
H     2.371000000    -0.251000000    -2.082000000
C     2.340000000    -3.414000000    -2.643000000
C     2.167000000    -3.034000000    -4.099000000
H     1.674000000    -3.928000000    -4.485000000
H     3.160000000    -3.013000000    -4.553000000
C     1.330000000    -1.739000000    -4.401000000
C     1.810000000    -0.447000000    -4.235000000
C     0.912000000     0.577000000    -4.385000000
H     1.225000000     1.612000000    -4.270000000
C    -0.460000000     0.294000000    -4.622000000
O    -1.306000000     1.307000000    -4.736000000
C    -2.067000000     1.684000000    -3.578000000
H    -1.564000000     1.315000000    -2.671000000
C    -2.128000000     3.179000000    -3.414000000
C    -3.182000000     3.657000000    -2.613000000
H    -3.949000000     2.987000000    -2.233000000
C    -1.021000000     3.979000000    -3.725000000
H    -0.192000000     3.454000000    -4.194000000
C    -0.905000000     5.231000000    -3.133000000
O     0.258000000     5.965000000    -3.223000000
C    -1.955000000     5.666000000    -2.395000000
H    -1.875000000     6.614000000    -1.869000000
C    -3.094000000     4.958000000    -2.153000000
O    -3.978000000     5.543000000    -1.311000000
C    -4.741000000     4.815000000    -0.384000000
C    -4.168000000     4.297000000     0.785000000
H    -3.104000000     4.427000000     0.967000000
C    -6.063000000     4.586000000    -0.697000000
H    -6.519000000     5.103000000    -1.537000000
C    -6.850000000     3.791000000     0.121000000
H    -7.926000000     3.737000000    -0.024000000
C    -6.289000000     3.278000000     1.276000000
H    -6.860000000     2.708000000     2.005000000
C    -4.937000000     3.529000000     1.622000000
O    -4.373000000     3.198000000     2.796000000
C    -4.314000000     1.896000000     3.194000000
C    -4.022000000     1.510000000     4.514000000
H    -4.158000000     2.256000000     5.293000000
C    -4.009000000     0.119000000     4.852000000
O    -3.793000000    -0.268000000     6.146000000
C    -2.533000000    -0.116000000     6.670000000
C    -1.519000000    -1.057000000     6.425000000
H    -1.740000000    -1.905000000     5.781000000
C    -2.220000000     1.032000000     7.264000000
H    -3.022000000     1.744000000     7.447000000
C    -0.872000000     1.303000000     7.612000000
H    -0.556000000     2.244000000     8.053000000
C     0.095000000     0.334000000     7.542000000
H     1.087000000     0.594000000     7.901000000
C    -0.253000000    -0.855000000     6.911000000
O     0.750000000    -1.792000000     6.559000000
C     1.539000000    -1.792000000     5.449000000
C     2.645000000    -0.920000000     5.374000000
H     2.948000000    -0.274000000     6.195000000
C     3.510000000    -1.213000000     4.374000000
O     4.653000000    -0.330000000     4.364000000
C     5.666000000    -0.516000000     3.489000000
C     5.732000000     0.451000000     2.444000000
H     4.953000000     1.209000000     2.450000000
C     6.585000000    -1.571000000     3.483000000
H     6.515000000    -2.351000000     4.237000000
C     7.646000000    -1.528000000     2.544000000
H     8.520000000    -2.168000000     2.636000000
C     7.709000000    -0.547000000     1.593000000
H     8.451000000    -0.688000000     0.811000000
C     6.747000000     0.461000000     1.476000000
O     6.798000000     1.425000000     0.515000000
C     5.857000000     1.579000000    -0.411000000
C     5.658000000     2.814000000    -0.979000000
H     6.327000000     3.589000000    -0.615000000
C     4.709000000     3.088000000    -1.895000000
O     4.648000000     4.347000000    -2.493000000
C     3.623000000     4.632000000    -3.369000000
C     3.780000000     4.433000000    -4.752000000
H     4.626000000     3.896000000    -5.174000000
C     2.773000000     4.783000000    -5.624000000
H     2.904000000     4.540000000    -6.676000000
C     1.591000000     5.311000000    -5.116000000
H     0.736000000     5.566000000    -5.738000000
C     1.451000000     5.461000000    -3.726000000
C     2.437000000     5.124000000    -2.854000000
H     2.378000000     5.199000000    -1.771000000
C    -0.426000000     1.984000000     0.875000000
H    -1.282000000     2.652000000     0.932000000
C    -0.685000000     0.855000000     0.160000000
H    -1.625000000     0.677000000    -0.357000000
C     0.154000000    -0.227000000     0.108000000
C    -0.247000000    -1.508000000    -0.557000000
H    -0.850000000    -1.283000000    -1.439000000
H     0.593000000    -2.103000000    -0.922000000
H    -0.846000000    -2.179000000     0.062000000
C     1.379000000    -0.054000000     0.747000000
H     2.023000000    -0.928000000     0.799000000
C     1.795000000     1.206000000     1.234000000
H     2.760000000     1.389000000     1.700000000
C     0.828000000     2.178000000     1.421000000
C     1.123000000     3.419000000     2.216000000
O     2.020000000     3.487000000     3.024000000
O     0.344000000     4.329000000     2.150000000
O     1.617000000     3.727000000     7.748000000
H     1.883000000     3.238000000     6.969000000
H     2.166000000     4.511000000     7.738000000
O     6.569000000     6.621000000     0.561000000
H     7.276000000     5.993000000     0.409000000
H     6.668000000     6.875000000     1.478000000
O     2.255000000     5.850000000     4.955000000
H     2.251000000     4.963000000     4.595000000
H     1.800000000     6.377000000     4.298000000
O     1.694000000     2.443000000     5.360000000
H     1.980000000     2.679000000     4.477000000
H     1.402000000     1.535000000     5.282000000
O     3.416000000     5.796000000     7.236000000
H     2.954000000     6.052000000     6.437000000
H     3.727000000     6.622000000     7.607000000
O    -3.388000000     7.017000000     3.176000000
H    -2.700000000     6.705000000     2.588000000
H    -3.175000000     6.624000000     4.023000000
O    -2.620000000     5.553000000     5.677000000
H    -1.927000000     5.012000000     5.298000000
H    -2.242000000     5.888000000     6.491000000
O     4.738000000     6.663000000     3.948000000
H     4.730000000     6.831000000     3.006000000
H     3.874000000     6.296000000     4.134000000
O    -0.741000000     5.857000000     8.120000000
H    -0.035000000     5.251000000     7.892000000
H    -0.291000000     6.645000000     8.425000000
O     7.674000000     3.678000000     2.557000000
H     8.064000000     3.101000000     3.214000000
H     6.766000000     3.383000000     2.487000000
O    -0.747000000     3.658000000     4.814000000
H     0.049000000     3.429000000     5.294000000
H    -0.431000000     4.071000000     4.011000000
O     3.898000000     7.325000000    -0.795000000
H     3.281000000     6.949000000    -0.168000000
H     4.671000000     6.763000000    -0.738000000
O    -0.673000000     8.957000000     5.129000000
H    -0.996000000     9.217000000     4.266000000
H     0.176000000     9.393000000     5.208000000
O     1.325000000     7.669000000     3.249000000
H     0.383000000     7.671000000     3.083000000
H     1.471000000     8.426000000     3.816000000
O     6.340000000     2.831000000     5.316000000
H     5.682000000     3.064000000     4.660000000
H     5.960000000     3.116000000     6.147000000
O     0.914000000     7.599000000    -0.394000000
H     0.453000000     8.435000000    -0.328000000
H     1.661000000     7.782000000    -0.964000000
O    -0.947000000     6.563000000     1.352000000
H    -0.472000000     6.777000000     0.550000000
H    -0.492000000     5.798000000     1.704000000
O     4.559000000     3.839000000     3.275000000
H     4.621000000     4.668000000     2.800000000
H     3.621000000     3.651000000     3.307000000
O     2.722000000     6.044000000     1.730000000
H     2.410000000     6.722000000     2.328000000
H     2.049000000     5.364000000     1.766000000
