218
-1487.88624
C    -4.163000000     0.057000000     2.781000000
H    -3.874000000    -0.977000000     2.953000000
C    -4.407000000     0.550000000     1.557000000
C    -4.670000000     1.896000000     1.373000000
H    -4.772000000     2.283000000     0.362000000
C    -4.175000000    -0.412000000     0.422000000
O    -4.403000000    -1.747000000     0.823000000
H    -3.133000000    -0.255000000     0.105000000
O    -4.949000000    -0.192000000    -0.752000000
C    -4.357000000    -0.231000000    -1.927000000
C    -3.942000000     0.977000000    -2.536000000
H    -4.036000000     1.855000000    -1.901000000
C    -3.071000000     0.869000000    -3.602000000
O    -2.399000000     1.995000000    -3.861000000
C    -2.651000000    -0.305000000    -4.247000000
C    -1.696000000    -0.343000000    -5.400000000
H    -1.889000000    -1.221000000    -6.021000000
C    -0.200000000    -0.371000000    -4.829000000
C     0.316000000    -1.617000000    -4.533000000
H    -0.306000000    -2.507000000    -4.581000000
H    -1.752000000     0.509000000    -6.080000000
C    -3.145000000    -1.410000000    -3.658000000
H    -2.793000000    -2.339000000    -4.099000000
C    -4.012000000    -1.424000000    -2.538000000
C    -4.437000000    -2.805000000    -1.961000000
H    -4.596000000    -3.541000000    -2.751000000
H    -5.384000000    -2.699000000    -1.427000000
C    -3.468000000    -3.206000000    -0.904000000
C    -2.480000000    -4.156000000    -1.273000000
H    -2.496000000    -4.718000000    -2.204000000
C    -3.497000000    -2.692000000     0.382000000
C    -2.595000000    -3.154000000     1.334000000
H    -2.635000000    -2.733000000     2.336000000
C    -1.573000000    -4.035000000     1.013000000
O    -0.593000000    -4.370000000     1.952000000
C     0.648000000    -3.756000000     1.878000000
C     1.056000000    -3.292000000     3.283000000
C     2.427000000    -3.156000000     3.554000000
H     3.187000000    -3.331000000     2.797000000
C     0.069000000    -3.022000000     4.224000000
H    -0.981000000    -3.173000000     3.987000000
O     1.540000000    -4.758000000     1.209000000
H     0.653000000    -2.854000000     1.249000000
C    -1.516000000    -4.564000000    -0.301000000
C    -0.434000000    -5.541000000    -0.755000000
H    -0.714000000    -6.179000000    -1.596000000
H    -0.298000000    -6.253000000     0.062000000
C     0.900000000    -4.876000000    -1.144000000
C     1.151000000    -4.392000000    -2.466000000
H     0.398000000    -4.694000000    -3.188000000
C     1.726000000    -4.421000000    -0.123000000
C     2.794000000    -3.620000000    -0.477000000
H     3.451000000    -3.314000000     0.333000000
C     3.043000000    -3.243000000    -1.796000000
O     4.060000000    -2.260000000    -1.960000000
C     3.755000000    -0.885000000    -2.149000000
C     4.645000000    -0.033000000    -1.357000000
C     4.966000000    -0.228000000    -0.030000000
H     4.779000000    -1.235000000     0.334000000
C     5.084000000     1.169000000    -1.958000000
H     4.909000000     1.357000000    -3.014000000
O     3.727000000    -0.625000000    -3.519000000
H     2.749000000    -0.589000000    -1.816000000
C     2.219000000    -3.612000000    -2.818000000
C     2.384000000    -3.041000000    -4.211000000
H     1.864000000    -3.730000000    -4.881000000
H     3.417000000    -2.979000000    -4.560000000
C     1.670000000    -1.673000000    -4.257000000
C     2.461000000    -0.551000000    -4.110000000
C     1.884000000     0.699000000    -4.288000000
H     2.546000000     1.555000000    -4.189000000
C     0.511000000     0.784000000    -4.583000000
O    -0.059000000     2.003000000    -4.592000000
C    -1.028000000     2.190000000    -3.486000000
H    -0.853000000     1.446000000    -2.694000000
C    -0.821000000     3.590000000    -2.808000000
C    -1.953000000     4.359000000    -2.444000000
H    -2.992000000     4.086000000    -2.613000000
C     0.441000000     3.952000000    -2.348000000
H     1.314000000     3.370000000    -2.635000000
C     0.636000000     5.161000000    -1.619000000
O     1.852000000     5.399000000    -1.088000000
C    -0.432000000     5.890000000    -1.304000000
H    -0.315000000     6.833000000    -0.777000000
C    -1.715000000     5.488000000    -1.640000000
O    -2.770000000     6.283000000    -1.385000000
C    -3.824000000     5.904000000    -0.554000000
C    -3.821000000     5.021000000     0.531000000
H    -2.877000000     4.599000000     0.865000000
C    -5.058000000     6.408000000    -0.991000000
H    -5.194000000     7.100000000    -1.818000000
C    -6.213000000     6.118000000    -0.270000000
H    -7.181000000     6.465000000    -0.624000000
C    -6.172000000     5.356000000     0.910000000
H    -7.085000000     5.072000000     1.426000000
C    -4.954000000     4.841000000     1.312000000
O    -4.902000000     4.102000000     2.499000000
C    -4.671000000     2.714000000     2.527000000
C    -4.495000000     2.170000000     3.726000000
H    -4.446000000     2.751000000     4.643000000
C    -4.163000000     0.830000000     3.884000000
O    -3.908000000     0.420000000     5.184000000
C    -3.519000000    -0.817000000     5.562000000
C    -2.125000000    -1.142000000     5.661000000
H    -1.314000000    -0.501000000     5.323000000
C    -4.508000000    -1.602000000     6.146000000
H    -5.529000000    -1.232000000     6.162000000
C    -4.123000000    -2.717000000     6.899000000
H    -4.959000000    -3.202000000     7.397000000
C    -2.771000000    -3.000000000     7.128000000
H    -2.496000000    -3.777000000     7.837000000
C    -1.786000000    -2.214000000     6.431000000
O    -0.457000000    -2.621000000     6.581000000
C     0.451000000    -2.817000000     5.567000000
C     1.806000000    -2.516000000     5.833000000
H     2.157000000    -2.223000000     6.819000000
C     2.776000000    -2.731000000     4.847000000
O     4.143000000    -2.482000000     5.146000000
C     5.109000000    -2.235000000     4.177000000
C     5.125000000    -0.930000000     3.620000000
H     4.418000000    -0.213000000     4.028000000
C     6.240000000    -3.069000000     4.026000000
H     6.385000000    -4.046000000     4.480000000
C     7.214000000    -2.729000000     2.988000000
H     8.103000000    -3.340000000     2.852000000
C     7.087000000    -1.509000000     2.335000000
H     7.823000000    -1.204000000     1.596000000
C     6.055000000    -0.621000000     2.623000000
O     6.060000000     0.542000000     2.052000000
C     5.654000000     0.696000000     0.751000000
C     6.144000000     1.819000000     0.121000000
H     6.590000000     2.647000000     0.666000000
C     5.821000000     2.052000000    -1.233000000
O     6.128000000     3.292000000    -1.769000000
C     5.027000000     4.046000000    -2.205000000
C     5.278000000     4.767000000    -3.312000000
H     6.179000000     4.583000000    -3.892000000
C     4.388000000     5.778000000    -3.740000000
H     4.596000000     6.459000000    -4.561000000
C     3.215000000     5.982000000    -2.968000000
H     2.393000000     6.570000000    -3.367000000
C     2.994000000     5.236000000    -1.844000000
C     3.854000000     4.241000000    -1.513000000
H     3.556000000     3.591000000    -0.694000000
C    -0.326000000     2.724000000     0.635000000
H    -0.990000000     3.583000000     0.581000000
C    -0.654000000     1.615000000    -0.107000000
H    -1.530000000     1.544000000    -0.747000000
C     0.197000000     0.516000000    -0.105000000
C    -0.215000000    -0.757000000    -0.836000000
H    -1.260000000    -0.985000000    -0.619000000
H     0.007000000    -0.630000000    -1.898000000
H     0.359000000    -1.629000000    -0.514000000
C     1.383000000     0.560000000     0.647000000
H     2.018000000    -0.318000000     0.560000000
C     1.657000000     1.642000000     1.447000000
H     2.559000000     1.688000000     2.052000000
C     0.787000000     2.741000000     1.442000000
C     1.036000000     3.963000000     2.306000000
O     2.031000000     4.027000000     3.004000000
O     0.149000000     4.770000000     2.508000000
O    -0.894000000     6.771000000     5.805000000
H    -0.803000000     6.952000000     6.741000000
H    -1.780000000     6.421000000     5.714000000
O    -1.411000000     3.395000000     4.271000000
H    -2.120000000     3.976000000     4.547000000
H    -0.978000000     3.867000000     3.559000000
O     2.350000000     4.261000000     7.302000000
H     3.187000000     4.499000000     7.701000000
H     2.199000000     4.938000000     6.642000000
O     2.681000000     1.801000000     6.268000000
H     1.830000000     1.780000000     5.831000000
H     2.723000000     2.669000000     6.669000000
O     5.850000000     7.717000000     3.157000000
H     5.029000000     7.280000000     2.932000000
H     5.581000000     8.504000000     3.631000000
O    -4.452000000     7.980000000     2.033000000
H    -3.524000000     7.753000000     2.095000000
H    -4.895000000     7.143000000     1.894000000
O     4.341000000     2.783000000     3.965000000
H     4.191000000     2.605000000     4.893000000
H     3.509000000     3.135000000     3.650000000
O     0.441000000     9.301000000     4.979000000
H    -0.025000000     8.507000000     5.242000000
H     0.320000000     9.347000000     4.031000000
O    -2.511000000     2.285000000     7.271000000
H    -2.297000000     2.551000000     6.377000000
H    -3.458000000     2.143000000     7.258000000
O     0.348000000     1.229000000     4.704000000
H     0.754000000     1.406000000     3.855000000
H    -0.165000000     2.014000000     4.893000000
O    -2.981000000     5.827000000     4.438000000
H    -2.587000000     5.977000000     3.579000000
H    -3.905000000     6.047000000     4.320000000
O     2.535000000     8.749000000     1.966000000
H     2.638000000     8.891000000     1.025000000
H     2.744000000     7.823000000     2.092000000
O     1.590000000     5.747000000     5.104000000
H     0.720000000     6.052000000     5.362000000
H     1.421000000     5.007000000     4.521000000
O     5.698000000     4.589000000     2.217000000
H     6.324000000     5.150000000     2.674000000
H     5.327000000     4.035000000     2.904000000
O     3.336000000     8.094000000     4.843000000
H     2.763000000     7.334000000     4.743000000
H     3.390000000     8.470000000     3.965000000
O     0.181000000     2.309000000     8.299000000
H     0.791000000     2.968000000     7.967000000
H    -0.644000000     2.500000000     7.853000000
O    -0.063000000     8.973000000     2.296000000
H    -0.479000000     9.542000000     1.649000000
H     0.865000000     9.206000000     2.258000000
O    -1.811000000     6.750000000     2.110000000
H    -1.179000000     6.031000000     2.097000000
H    -1.341000000     7.475000000     2.523000000
O     3.468000000     6.302000000     2.179000000
H     4.220000000     5.757000000     1.945000000
H     2.767000000     5.676000000     2.361000000
