218
-1466.84243
C    -4.026000000    -0.778000000     3.441000000
H    -3.758000000    -1.820000000     3.591000000
C    -4.277000000    -0.432000000     2.090000000
C    -4.701000000     0.877000000     1.829000000
H    -4.977000000     1.132000000     0.809000000
C    -4.040000000    -1.454000000     0.993000000
O    -4.014000000    -2.799000000     1.386000000
H    -3.049000000    -1.163000000     0.616000000
O    -4.955000000    -1.373000000    -0.142000000
C    -4.522000000    -1.401000000    -1.440000000
C    -4.328000000    -0.193000000    -2.082000000
H    -4.654000000     0.720000000    -1.591000000
C    -3.544000000    -0.126000000    -3.202000000
O    -3.250000000     1.167000000    -3.568000000
C    -3.034000000    -1.250000000    -3.788000000
C    -2.263000000    -1.219000000    -5.131000000
H    -2.274000000    -2.250000000    -5.491000000
C    -0.783000000    -0.976000000    -4.861000000
C     0.123000000    -2.065000000    -4.679000000
H    -0.144000000    -3.102000000    -4.866000000
H    -2.635000000    -0.515000000    -5.879000000
C    -3.263000000    -2.444000000    -3.162000000
H    -2.963000000    -3.381000000    -3.625000000
C    -3.983000000    -2.596000000    -1.967000000
C    -4.060000000    -3.990000000    -1.308000000
H    -4.142000000    -4.775000000    -2.062000000
H    -5.020000000    -4.094000000    -0.798000000
C    -2.948000000    -4.252000000    -0.284000000
C    -1.755000000    -4.886000000    -0.693000000
H    -1.701000000    -5.384000000    -1.658000000
C    -3.006000000    -3.687000000     1.015000000
C    -1.929000000    -3.836000000     1.876000000
H    -2.053000000    -3.334000000     2.832000000
C    -0.764000000    -4.479000000     1.490000000
O     0.353000000    -4.483000000     2.292000000
C     1.329000000    -3.474000000     2.074000000
C     1.786000000    -2.888000000     3.426000000
C     2.880000000    -2.020000000     3.454000000
H     3.532000000    -1.893000000     2.593000000
C     0.996000000    -2.948000000     4.568000000
H     0.038000000    -3.448000000     4.680000000
O     2.450000000    -3.991000000     1.385000000
H     0.843000000    -2.704000000     1.456000000
C    -0.661000000    -5.049000000     0.232000000
C     0.614000000    -5.688000000    -0.226000000
H     0.393000000    -6.435000000    -0.991000000
H     1.073000000    -6.154000000     0.649000000
C     1.653000000    -4.747000000    -0.818000000
C     1.653000000    -4.393000000    -2.191000000
H     0.936000000    -4.810000000    -2.894000000
C     2.534000000    -4.006000000     0.006000000
C     3.455000000    -3.130000000    -0.519000000
H     4.237000000    -2.727000000     0.120000000
C     3.433000000    -2.831000000    -1.866000000
O     4.221000000    -1.782000000    -2.167000000
C     3.507000000    -0.503000000    -2.378000000
C     4.269000000     0.608000000    -1.691000000
C     5.386000000     0.388000000    -0.884000000
H     5.686000000    -0.633000000    -0.662000000
C     3.834000000     1.879000000    -1.789000000
H     3.100000000     2.082000000    -2.565000000
O     3.176000000    -0.222000000    -3.719000000
H     2.567000000    -0.651000000    -1.827000000
C     2.497000000    -3.419000000    -2.702000000
C     2.302000000    -3.042000000    -4.175000000
H     2.090000000    -3.923000000    -4.785000000
H     3.292000000    -2.803000000    -4.569000000
C     1.434000000    -1.811000000    -4.385000000
C     1.895000000    -0.495000000    -4.165000000
C     0.985000000     0.577000000    -4.360000000
H     1.362000000     1.594000000    -4.289000000
C    -0.343000000     0.333000000    -4.719000000
O    -1.190000000     1.399000000    -4.694000000
C    -1.863000000     1.630000000    -3.442000000
H    -1.444000000     1.092000000    -2.580000000
C    -1.700000000     3.030000000    -3.029000000
C    -2.656000000     3.608000000    -2.115000000
H    -3.381000000     2.914000000    -1.698000000
C    -0.729000000     3.801000000    -3.442000000
H    -0.016000000     3.474000000    -4.195000000
C    -0.711000000     5.186000000    -3.077000000
O     0.209000000     5.953000000    -3.686000000
C    -1.524000000     5.759000000    -2.185000000
H    -1.597000000     6.826000000    -1.991000000
C    -2.566000000     4.945000000    -1.676000000
O    -3.521000000     5.537000000    -0.929000000
C    -4.623000000     4.864000000    -0.475000000
C    -4.579000000     4.368000000     0.827000000
H    -3.701000000     4.469000000     1.460000000
C    -5.730000000     4.709000000    -1.329000000
H    -5.750000000     5.067000000    -2.355000000
C    -6.782000000     3.978000000    -0.797000000
H    -7.674000000     3.957000000    -1.419000000
C    -6.709000000     3.374000000     0.468000000
H    -7.578000000     2.787000000     0.753000000
C    -5.583000000     3.549000000     1.317000000
O    -5.538000000     2.965000000     2.595000000
C    -4.951000000     1.754000000     2.883000000
C    -4.716000000     1.448000000     4.191000000
H    -4.799000000     2.175000000     4.995000000
C    -4.139000000     0.210000000     4.433000000
O    -3.856000000    -0.040000000     5.744000000
C    -2.637000000    -0.030000000     6.323000000
C    -1.749000000    -1.109000000     6.219000000
H    -2.009000000    -2.054000000     5.750000000
C    -2.316000000     1.063000000     7.096000000
H    -3.063000000     1.835000000     7.261000000
C    -1.127000000     1.190000000     7.757000000
H    -0.891000000     2.115000000     8.277000000
C    -0.145000000     0.169000000     7.475000000
H     0.794000000     0.441000000     7.950000000
C    -0.515000000    -1.033000000     6.810000000
O     0.391000000    -2.082000000     6.719000000
C     1.259000000    -2.164000000     5.664000000
C     2.423000000    -1.347000000     5.721000000
H     2.655000000    -0.772000000     6.613000000
C     3.237000000    -1.280000000     4.558000000
O     4.399000000    -0.530000000     4.550000000
C     5.421000000    -0.681000000     3.619000000
C     5.673000000     0.347000000     2.728000000
H     5.010000000     1.203000000     2.629000000
C     6.328000000    -1.781000000     3.646000000
H     6.329000000    -2.664000000     4.280000000
C     7.431000000    -1.846000000     2.826000000
H     8.278000000    -2.525000000     2.886000000
C     7.680000000    -0.751000000     1.996000000
H     8.500000000    -0.832000000     1.287000000
C     6.742000000     0.235000000     1.811000000
O     6.999000000     1.104000000     0.789000000
C     5.956000000     1.409000000    -0.130000000
C     5.521000000     2.717000000    -0.295000000
H     5.821000000     3.484000000     0.414000000
C     4.393000000     2.913000000    -1.084000000
O     3.916000000     4.169000000    -1.189000000
C     3.463000000     4.701000000    -2.410000000
C     4.286000000     4.948000000    -3.476000000
H     5.368000000     4.896000000    -3.377000000
C     3.765000000     5.676000000    -4.564000000
H     4.355000000     5.969000000    -5.428000000
C     2.339000000     5.924000000    -4.609000000
H     1.875000000     6.385000000    -5.477000000
C     1.552000000     5.673000000    -3.521000000
C     2.103000000     5.027000000    -2.401000000
H     1.530000000     4.921000000    -1.483000000
C    -0.526000000     2.188000000     0.761000000
H    -1.257000000     2.946000000     1.031000000
C    -1.074000000     1.076000000     0.121000000
H    -2.056000000     1.124000000    -0.342000000
C    -0.168000000    -0.002000000    -0.124000000
C    -0.626000000    -1.113000000    -1.001000000
H    -0.319000000    -2.093000000    -0.630000000
H    -1.716000000    -1.076000000    -1.059000000
H    -0.188000000    -1.096000000    -2.001000000
C     1.085000000     0.024000000     0.450000000
H     1.766000000    -0.803000000     0.270000000
C     1.543000000     1.106000000     1.186000000
H     2.498000000     1.023000000     1.697000000
C     0.755000000     2.260000000     1.321000000
C     1.167000000     3.436000000     2.185000000
O     2.208000000     3.400000000     2.797000000
O     0.497000000     4.474000000     2.216000000
O     1.649000000     3.650000000     6.830000000
H     1.981000000     2.823000000     6.481000000
H     1.746000000     4.271000000     6.108000000
O     1.305000000     5.754000000     4.473000000
H     0.538000000     6.324000000     4.515000000
H     1.175000000     5.235000000     3.680000000
O     2.402000000     1.623000000     5.154000000
H     2.371000000     2.106000000     4.328000000
H     3.043000000     0.929000000     5.001000000
O    -3.946000000     6.327000000     3.116000000
H    -3.019000000     6.255000000     2.887000000
H    -4.066000000     5.699000000     3.829000000
O    -2.733000000     4.945000000     5.463000000
H    -2.138000000     4.367000000     4.986000000
H    -2.157000000     5.495000000     5.994000000
O     3.840000000     6.118000000     4.969000000
H     4.017000000     7.056000000     4.891000000
H     2.893000000     6.042000000     4.851000000
O     0.465000000     5.524000000     8.184000000
H     0.814000000     4.765000000     7.717000000
H     1.057000000     5.642000000     8.926000000
O     7.010000000     5.842000000     1.719000000
H     7.758000000     5.262000000     1.864000000
H     6.274000000     5.390000000     2.132000000
O    -1.088000000     3.141000000     4.338000000
H    -0.959000000     2.236000000     4.622000000
H    -0.526000000     3.233000000     3.569000000
O     3.840000000     6.719000000    -0.010000000
H     2.983000000     6.669000000     0.414000000
H     3.990000000     5.837000000    -0.352000000
O    -1.492000000     6.924000000     6.556000000
H    -1.057000000     6.579000000     7.336000000
H    -0.909000000     7.617000000     6.244000000
O     0.895000000     8.921000000     3.064000000
H     1.109000000     8.022000000     2.814000000
H     0.889000000     8.908000000     4.021000000
O     5.199000000     4.803000000     7.525000000
H     5.235000000     5.212000000     8.390000000
H     4.750000000     5.444000000     6.975000000
O     5.810000000     3.452000000     5.072000000
H     5.519000000     3.972000000     5.820000000
H     5.496000000     3.935000000     4.308000000
O    -1.676000000     8.003000000     0.618000000
H    -2.300000000     8.405000000     0.013000000
H    -1.730000000     8.540000000     1.409000000
O     5.749000000     8.110000000     1.260000000
H     6.283000000     7.360000000     1.520000000
H     4.901000000     7.732000000     1.027000000
O    -1.197000000     6.515000000     2.923000000
H    -1.296000000     7.018000000     2.114000000
H    -0.841000000     5.673000000     2.640000000
O     4.558000000     4.582000000     2.787000000
H     4.458000000     5.278000000     3.436000000
H     3.700000000     4.160000000     2.753000000
O     1.049000000     6.641000000     0.779000000
H     0.212000000     6.851000000     0.363000000
H     0.871000000     5.853000000     1.291000000
