218
-1444.10360
C    -4.533000000     1.733000000    -2.281000000
H    -4.536000000     2.354000000    -3.173000000
C    -3.546000000     1.851000000    -1.328000000
C    -3.589000000     1.055000000    -0.205000000
H    -2.786000000     1.126000000     0.524000000
C    -2.545000000     2.933000000    -1.382000000
O    -2.423000000     3.562000000    -2.625000000
H    -1.600000000     2.407000000    -1.179000000
O    -2.688000000     3.934000000    -0.331000000
C    -1.574000000     4.171000000     0.434000000
C    -1.574000000     3.684000000     1.755000000
H    -2.442000000     3.160000000     2.147000000
C    -0.407000000     3.742000000     2.472000000
O    -0.476000000     3.148000000     3.720000000
C     0.737000000     4.363000000     1.987000000
C     2.010000000     4.539000000     2.745000000
H     2.569000000     5.432000000     2.457000000
C     2.856000000     3.251000000     2.604000000
C     3.669000000     3.071000000     1.529000000
H     3.627000000     3.787000000     0.713000000
H     1.784000000     4.662000000     3.806000000
C     0.792000000     4.746000000     0.658000000
H     1.690000000     5.173000000     0.220000000
C    -0.406000000     4.690000000    -0.112000000
C    -0.320000000     5.342000000    -1.543000000
H     0.305000000     6.237000000    -1.564000000
H    -1.354000000     5.671000000    -1.672000000
C    -0.095000000     4.411000000    -2.717000000
C     1.206000000     4.062000000    -3.134000000
H     2.065000000     4.563000000    -2.696000000
C    -1.171000000     3.648000000    -3.204000000
C    -0.873000000     2.635000000    -4.060000000
H    -1.693000000     1.954000000    -4.272000000
C     0.322000000     2.400000000    -4.556000000
O     0.442000000     1.196000000    -5.167000000
C     0.620000000     0.010000000    -4.339000000
C    -0.214000000    -1.166000000    -4.742000000
C    -0.015000000    -2.371000000    -4.148000000
H     0.796000000    -2.490000000    -3.434000000
C    -1.268000000    -1.072000000    -5.661000000
H    -1.446000000    -0.085000000    -6.080000000
O     2.023000000    -0.290000000    -4.346000000
H     0.364000000     0.220000000    -3.290000000
C     1.448000000     3.055000000    -4.027000000
C     2.861000000     2.545000000    -4.301000000
H     3.601000000     3.347000000    -4.270000000
H     2.956000000     2.153000000    -5.316000000
C     3.265000000     1.440000000    -3.241000000
C     4.123000000     1.859000000    -2.183000000
H     4.523000000     2.869000000    -2.185000000
C     2.859000000     0.140000000    -3.339000000
C     3.227000000    -0.663000000    -2.227000000
H     3.113000000    -1.740000000    -2.323000000
C     3.960000000    -0.188000000    -1.167000000
O     4.274000000    -1.159000000    -0.285000000
C     3.691000000    -1.249000000     1.037000000
C     3.511000000    -2.700000000     1.463000000
C     3.093000000    -3.677000000     0.563000000
H     3.026000000    -3.389000000    -0.483000000
C     3.323000000    -2.957000000     2.839000000
H     3.510000000    -2.124000000     3.511000000
O     4.531000000    -0.536000000     1.994000000
H     2.676000000    -0.826000000     1.072000000
C     4.384000000     1.083000000    -1.086000000
C     5.135000000     1.682000000     0.045000000
H     5.498000000     2.693000000    -0.153000000
H     5.896000000     0.913000000     0.193000000
C     4.242000000     1.806000000     1.343000000
C     4.084000000     0.758000000     2.218000000
C     3.241000000     0.976000000     3.300000000
H     2.867000000     0.159000000     3.912000000
C     2.633000000     2.212000000     3.446000000
O     1.653000000     2.299000000     4.411000000
C     0.377000000     1.884000000     3.969000000
H     0.546000000     1.270000000     3.073000000
C    -0.262000000     0.944000000     4.949000000
C    -1.590000000     0.619000000     4.786000000
H    -2.151000000     0.988000000     3.931000000
C     0.461000000     0.302000000     5.957000000
H     1.540000000     0.403000000     6.035000000
C    -0.138000000    -0.598000000     6.765000000
O     0.691000000    -1.344000000     7.590000000
C    -1.471000000    -0.968000000     6.652000000
H    -1.939000000    -1.710000000     7.295000000
C    -2.220000000    -0.251000000     5.717000000
O    -3.588000000    -0.622000000     5.734000000
C    -4.413000000    -0.247000000     4.720000000
C    -4.096000000    -0.653000000     3.397000000
H    -3.313000000    -1.372000000     3.172000000
C    -5.462000000     0.618000000     4.973000000
H    -5.717000000     0.851000000     6.004000000
C    -6.206000000     1.137000000     3.906000000
H    -6.918000000     1.920000000     4.156000000
C    -5.877000000     0.742000000     2.576000000
H    -6.482000000     1.149000000     1.769000000
C    -4.895000000    -0.139000000     2.340000000
O    -4.792000000    -0.721000000     1.050000000
C    -4.554000000     0.019000000    -0.068000000
C    -5.260000000    -0.336000000    -1.196000000
H    -5.843000000    -1.225000000    -1.423000000
C    -5.184000000     0.553000000    -2.273000000
O    -5.907000000     0.169000000    -3.403000000
C    -5.428000000     0.187000000    -4.659000000
C    -4.501000000    -0.754000000    -5.026000000
H    -4.182000000    -1.434000000    -4.240000000
C    -6.106000000     0.836000000    -5.702000000
H    -6.960000000     1.490000000    -5.541000000
C    -5.648000000     0.777000000    -7.040000000
H    -6.169000000     1.283000000    -7.849000000
C    -4.643000000    -0.151000000    -7.320000000
H    -4.439000000    -0.383000000    -8.362000000
C    -4.132000000    -0.976000000    -6.353000000
O    -3.301000000    -2.013000000    -6.625000000
C    -2.140000000    -2.140000000    -5.854000000
C    -1.902000000    -3.337000000    -5.328000000
H    -2.588000000    -4.138000000    -5.592000000
C    -0.804000000    -3.469000000    -4.423000000
O    -0.471000000    -4.730000000    -4.010000000
C     0.697000000    -5.090000000    -3.423000000
C     0.808000000    -5.086000000    -2.047000000
H    -0.145000000    -5.041000000    -1.527000000
C     1.844000000    -5.336000000    -4.200000000
H     1.779000000    -5.174000000    -5.273000000
C     3.049000000    -5.642000000    -3.583000000
H     3.940000000    -5.963000000    -4.115000000
C     3.080000000    -5.755000000    -2.172000000
H     3.997000000    -6.019000000    -1.651000000
C     1.965000000    -5.536000000    -1.396000000
O     2.008000000    -5.737000000    -0.015000000
C     2.597000000    -4.888000000     0.920000000
C     2.507000000    -5.191000000     2.303000000
H     2.024000000    -6.149000000     2.480000000
C     2.925000000    -4.249000000     3.278000000
O     2.639000000    -4.535000000     4.607000000
C     2.784000000    -3.564000000     5.575000000
C     3.997000000    -3.455000000     6.290000000
H     4.905000000    -3.960000000     5.972000000
C     4.145000000    -2.598000000     7.369000000
H     5.027000000    -2.578000000     8.003000000
C     2.954000000    -1.953000000     7.785000000
H     2.996000000    -1.283000000     8.641000000
C     1.702000000    -2.115000000     7.165000000
C     1.629000000    -2.827000000     5.971000000
H     0.680000000    -2.937000000     5.453000000
C    -0.521000000    -2.617000000     2.043000000
H    -0.142000000    -3.006000000     2.985000000
C     0.042000000    -1.394000000     1.575000000
H     0.797000000    -0.915000000     2.193000000
C    -0.414000000    -0.847000000     0.393000000
C     0.144000000     0.464000000    -0.049000000
H     0.873000000     0.934000000     0.614000000
H     0.475000000     0.239000000    -1.065000000
H    -0.668000000     1.191000000    -0.126000000
C    -1.431000000    -1.445000000    -0.362000000
H    -1.809000000    -0.996000000    -1.276000000
C    -1.903000000    -2.673000000     0.029000000
H    -2.743000000    -3.046000000    -0.550000000
C    -1.471000000    -3.272000000     1.253000000
C    -2.235000000    -4.463000000     1.762000000
O    -3.148000000    -4.914000000     1.063000000
O    -2.107000000    -4.926000000     2.897000000
O    -7.585000000    -6.256000000     1.703000000
H    -7.983000000    -6.161000000     2.568000000
H    -6.847000000    -5.648000000     1.710000000
O    -0.066000000    -5.532000000     6.586000000
H     0.865000000    -5.445000000     6.382000000
H    -0.122000000    -5.365000000     7.527000000
O    -3.424000000   -10.862000000     2.219000000
H    -4.032000000   -10.145000000     2.041000000
H    -2.557000000   -10.459000000     2.171000000
O    -6.167000000    -3.587000000    -2.555000000
H    -6.970000000    -4.028000000    -2.279000000
H    -6.453000000    -2.967000000    -3.226000000
O     1.038000000    -8.536000000     0.080000000
H     0.087000000    -8.431000000     0.104000000
H     1.381000000    -7.682000000     0.341000000
O    -2.373000000    -7.887000000    -1.742000000
H    -2.052000000    -8.715000000    -2.099000000
H    -2.014000000    -7.853000000    -0.856000000
O    -5.206000000    -5.303000000     2.537000000
H    -5.327000000    -4.551000000     3.117000000
H    -4.466000000    -5.059000000     1.981000000
O    -1.671000000    -7.365000000     0.978000000
H    -2.093000000    -6.575000000     1.315000000
H    -1.625000000    -7.953000000     1.732000000
O    -4.447000000    -6.984000000    -0.114000000
H    -3.789000000    -7.281000000    -0.744000000
H    -3.983000000    -6.353000000     0.437000000
O    -1.395000000    -8.779000000     3.578000000
H    -0.909000000    -8.140000000     4.099000000
H    -2.189000000    -8.948000000     4.085000000
O    -3.435000000    -6.782000000     4.278000000
H    -2.832000000    -6.212000000     3.802000000
H    -4.269000000    -6.686000000     3.818000000
O    -5.729000000    -6.376000000    -2.516000000
H    -5.761000000    -5.419000000    -2.517000000
H    -5.563000000    -6.609000000    -1.603000000
O    -4.477000000    -3.027000000     7.497000000
H    -4.113000000    -3.772000000     7.975000000
H    -3.842000000    -2.855000000     6.802000000
O     0.230000000    -6.640000000     4.343000000
H    -0.165000000    -6.213000000     5.103000000
H    -0.030000000    -6.096000000     3.600000000
O    -5.342000000    -8.514000000     2.202000000
H    -6.282000000    -8.449000000     2.370000000
H    -5.226000000    -8.124000000     1.336000000
O    -6.822000000    -3.432000000     0.772000000
H    -6.212000000    -3.662000000     0.071000000
H    -6.275000000    -3.014000000     1.437000000
O    -2.334000000    -3.698000000     5.525000000
H    -2.468000000    -4.171000000     4.704000000
H    -1.579000000    -4.127000000     5.928000000
O    -2.926000000    -8.534000000     6.247000000
H    -3.519000000    -9.247000000     6.008000000
H    -3.222000000    -7.790000000     5.722000000
O     2.389000000    -8.394000000     4.762000000
H     2.393000000    -7.940000000     5.605000000
H     1.663000000    -7.997000000     4.280000000
