218
-1465.58848
C    -4.652000000    -0.264000000     2.786000000
H    -4.900000000    -1.270000000     2.456000000
C    -4.211000000     0.735000000     1.938000000
C    -3.841000000     1.981000000     2.379000000
H    -3.543000000     2.714000000     1.633000000
C    -4.168000000     0.314000000     0.438000000
O    -4.793000000    -0.919000000     0.184000000
H    -3.143000000     0.043000000     0.144000000
O    -4.825000000     1.273000000    -0.398000000
C    -4.185000000     1.526000000    -1.579000000
C    -3.491000000     2.696000000    -1.519000000
H    -3.561000000     3.324000000    -0.634000000
C    -2.597000000     2.955000000    -2.602000000
O    -1.806000000     4.040000000    -2.501000000
C    -2.535000000     2.096000000    -3.731000000
C    -1.620000000     2.333000000    -4.863000000
H    -1.926000000     1.823000000    -5.778000000
C    -0.192000000     1.793000000    -4.539000000
C     0.186000000     0.486000000    -4.965000000
H    -0.461000000    -0.142000000    -5.572000000
H    -1.643000000     3.392000000    -5.128000000
C    -3.356000000     0.971000000    -3.707000000
H    -3.378000000     0.310000000    -4.570000000
C    -4.133000000     0.621000000    -2.646000000
C    -4.835000000    -0.724000000    -2.617000000
H    -4.935000000    -1.112000000    -3.633000000
H    -5.808000000    -0.654000000    -2.125000000
C    -4.006000000    -1.822000000    -1.930000000
C    -3.159000000    -2.663000000    -2.640000000
H    -3.025000000    -2.527000000    -3.711000000
C    -4.144000000    -1.975000000    -0.555000000
C    -3.491000000    -3.038000000     0.067000000
H    -3.654000000    -3.212000000     1.128000000
C    -2.587000000    -3.810000000    -0.591000000
O    -1.732000000    -4.730000000     0.107000000
C    -0.367000000    -4.340000000     0.202000000
C     0.118000000    -4.443000000     1.639000000
C     1.454000000    -4.832000000     1.948000000
H     2.041000000    -5.188000000     1.106000000
C    -0.718000000    -4.042000000     2.696000000
H    -1.679000000    -3.643000000     2.383000000
O     0.490000000    -4.938000000    -0.766000000
H    -0.282000000    -3.279000000    -0.075000000
C    -2.480000000    -3.723000000    -2.022000000
C    -1.480000000    -4.595000000    -2.805000000
H    -1.977000000    -4.816000000    -3.753000000
H    -1.436000000    -5.576000000    -2.329000000
C    -0.058000000    -3.967000000    -2.839000000
C     0.256000000    -3.164000000    -3.948000000
H    -0.443000000    -2.943000000    -4.751000000
C     0.879000000    -4.172000000    -1.820000000
C     2.187000000    -3.689000000    -1.874000000
H     2.887000000    -3.812000000    -1.051000000
C     2.414000000    -2.755000000    -2.924000000
O     3.587000000    -1.996000000    -2.845000000
C     3.378000000    -0.739000000    -2.248000000
C     4.472000000    -0.457000000    -1.259000000
C     4.972000000    -1.524000000    -0.465000000
H     4.554000000    -2.526000000    -0.525000000
C     4.919000000     0.829000000    -1.116000000
H     4.489000000     1.642000000    -1.695000000
O     3.510000000     0.224000000    -3.293000000
H     2.401000000    -0.651000000    -1.752000000
C     1.503000000    -2.593000000    -4.031000000
C     1.826000000    -1.511000000    -5.034000000
H     1.323000000    -1.746000000    -5.974000000
H     2.901000000    -1.489000000    -5.222000000
C     1.395000000    -0.084000000    -4.539000000
C     2.301000000     0.740000000    -3.793000000
C     1.903000000     1.991000000    -3.373000000
H     2.638000000     2.539000000    -2.790000000
C     0.705000000     2.591000000    -3.798000000
O     0.498000000     3.838000000    -3.222000000
C    -0.404000000     3.893000000    -2.077000000
H    -0.361000000     2.906000000    -1.593000000
C     0.045000000     4.958000000    -1.022000000
C    -0.845000000     5.727000000    -0.291000000
H    -1.909000000     5.574000000    -0.452000000
C     1.385000000     4.934000000    -0.572000000
H     2.145000000     4.418000000    -1.153000000
C     1.849000000     5.616000000     0.487000000
O     3.106000000     5.398000000     0.972000000
C     1.027000000     6.445000000     1.197000000
H     1.427000000     6.898000000     2.101000000
C    -0.385000000     6.424000000     0.848000000
O    -1.309000000     7.027000000     1.718000000
C    -2.406000000     6.328000000     2.160000000
C    -2.336000000     5.343000000     3.132000000
H    -1.352000000     5.052000000     3.492000000
C    -3.549000000     6.612000000     1.427000000
H    -3.471000000     7.434000000     0.721000000
C    -4.715000000     6.063000000     1.852000000
H    -5.639000000     6.505000000     1.489000000
C    -4.708000000     4.950000000     2.790000000
H    -5.614000000     4.429000000     3.088000000
C    -3.508000000     4.652000000     3.409000000
O    -3.441000000     3.517000000     4.188000000
C    -3.935000000     2.300000000     3.722000000
C    -4.378000000     1.316000000     4.624000000
H    -4.303000000     1.458000000     5.699000000
C    -4.675000000     0.034000000     4.126000000
O    -5.015000000    -0.853000000     5.048000000
C    -4.499000000    -2.155000000     5.083000000
C    -3.077000000    -2.244000000     5.117000000
H    -2.550000000    -1.293000000     5.146000000
C    -5.166000000    -3.310000000     4.803000000
H    -6.213000000    -3.276000000     4.512000000
C    -4.492000000    -4.508000000     4.570000000
H    -5.070000000    -5.368000000     4.242000000
C    -3.117000000    -4.611000000     4.754000000
H    -2.558000000    -5.534000000     4.623000000
C    -2.407000000    -3.453000000     5.010000000
O    -1.074000000    -3.462000000     4.996000000
C    -0.241000000    -4.039000000     4.034000000
C     1.075000000    -4.431000000     4.278000000
H     1.461000000    -4.299000000     5.285000000
C     1.904000000    -4.882000000     3.258000000
O     3.229000000    -5.217000000     3.409000000
C     4.313000000    -4.964000000     2.545000000
C     4.751000000    -3.667000000     2.306000000
H     4.178000000    -2.819000000     2.672000000
C     5.146000000    -6.024000000     1.992000000
H     4.897000000    -7.078000000     2.081000000
C     6.241000000    -5.787000000     1.213000000
H     6.882000000    -6.634000000     0.982000000
C     6.623000000    -4.508000000     0.967000000
H     7.494000000    -4.322000000     0.343000000
C     5.921000000    -3.435000000     1.491000000
O     6.486000000    -2.200000000     1.330000000
C     6.025000000    -1.283000000     0.417000000
C     6.541000000     0.012000000     0.576000000
H     7.271000000     0.191000000     1.361000000
C     5.970000000     1.048000000    -0.199000000
O     6.540000000     2.269000000    -0.100000000
C     5.870000000     3.406000000    -0.374000000
C     6.362000000     4.278000000    -1.353000000
H     7.148000000     3.907000000    -2.006000000
C     5.746000000     5.504000000    -1.526000000
H     6.181000000     6.162000000    -2.274000000
C     4.664000000     5.903000000    -0.724000000
H     4.161000000     6.848000000    -0.911000000
C     4.219000000     5.053000000     0.289000000
C     4.845000000     3.828000000     0.474000000
H     4.633000000     3.280000000     1.389000000
C    -0.429000000     0.830000000     2.646000000
H    -0.851000000     1.653000000     3.218000000
C    -0.834000000     0.767000000     1.248000000
H    -1.604000000     1.435000000     0.871000000
C    -0.241000000    -0.208000000     0.546000000
C    -0.518000000    -0.376000000    -0.911000000
H    -1.100000000    -1.297000000    -0.980000000
H    -1.022000000     0.531000000    -1.252000000
H     0.468000000    -0.424000000    -1.379000000
C     0.713000000    -1.062000000     1.049000000
H     1.157000000    -1.816000000     0.404000000
C     1.027000000    -1.114000000     2.419000000
H     1.742000000    -1.825000000     2.823000000
C     0.426000000    -0.161000000     3.224000000
C     0.727000000    -0.155000000     4.724000000
O     1.662000000    -0.885000000     5.059000000
O     0.087000000     0.509000000     5.514000000
O     2.563000000     1.695000000     1.536000000
H     1.826000000     1.112000000     1.720000000
H     3.211000000     1.134000000     1.109000000
O     4.309000000    -0.395000000     9.722000000
H     4.157000000     0.460000000     9.319000000
H     4.252000000    -1.016000000     8.996000000
O    -2.225000000     1.053000000     6.995000000
H    -2.393000000     0.158000000     7.291000000
H    -1.530000000     0.964000000     6.344000000
O    -1.776000000     3.319000000     8.327000000
H    -1.019000000     2.959000000     8.789000000
H    -2.153000000     2.571000000     7.866000000
O     4.153000000     1.545000000     3.911000000
H     3.809000000     1.563000000     3.018000000
H     3.740000000     2.293000000     4.342000000
O    -0.616000000    -3.044000000     9.309000000
H    -0.033000000    -3.328000000    10.013000000
H    -1.092000000    -3.835000000     9.057000000
O     4.003000000     2.158000000     8.179000000
H     3.175000000     1.916000000     7.765000000
H     4.663000000     2.003000000     7.503000000
O     0.130000000     3.060000000     5.288000000
H     0.138000000     2.104000000     5.239000000
H    -0.356000000     3.255000000     6.089000000
O     4.157000000    -1.245000000     4.622000000
H     3.336000000    -1.443000000     5.073000000
H     4.055000000    -0.342000000     4.323000000
O     0.630000000    -0.266000000    10.197000000
H     0.225000000    -0.981000000    10.688000000
H     1.357000000    -0.677000000     9.731000000
O     1.745000000    -1.871000000     7.436000000
H     1.471000000    -1.467000000     6.613000000
H     1.023000000    -2.454000000     7.669000000
O     0.457000000     6.049000000     5.558000000
H     1.106000000     5.978000000     6.258000000
H     0.328000000     5.148000000     5.260000000
O     4.795000000    -2.541000000     7.877000000
H     3.948000000    -2.259000000     7.533000000
H     4.580000000    -3.037000000     8.667000000
O     0.849000000     2.785000000     9.783000000
H     1.619000000     3.055000000    10.285000000
H     1.067000000     1.911000000     9.461000000
O    -2.683000000    -1.190000000     8.799000000
H    -1.913000000    -1.689000000     9.069000000
H    -3.425000000    -1.692000000     9.135000000
O     7.005000000    -2.041000000     4.394000000
H     7.453000000    -1.210000000     4.553000000
H     6.102000000    -1.883000000     4.670000000
O     2.291000000     3.785000000     3.576000000
H     1.501000000     3.696000000     4.108000000
H     1.967000000     3.909000000     2.684000000
O     1.668000000     1.089000000     7.575000000
H     1.133000000     0.971000000     6.790000000
H     1.562000000     0.272000000     8.062000000
O     6.025000000     1.628000000     6.065000000
H     6.835000000     1.122000000     6.003000000
H     5.647000000     1.583000000     5.186000000
