218
-1484.18881
C    -4.413000000    -1.032000000     2.491000000
H    -3.951000000    -2.009000000     2.369000000
C    -4.632000000    -0.205000000     1.382000000
C    -5.116000000     1.071000000     1.600000000
H    -5.107000000     1.772000000     0.770000000
C    -4.441000000    -0.709000000    -0.030000000
O    -4.627000000    -2.119000000    -0.135000000
H    -3.374000000    -0.563000000    -0.255000000
O    -5.218000000    -0.018000000    -1.058000000
C    -4.452000000     0.285000000    -2.122000000
C    -3.961000000     1.637000000    -2.126000000
H    -4.352000000     2.370000000    -1.425000000
C    -3.072000000     2.034000000    -3.130000000
O    -2.436000000     3.248000000    -2.861000000
C    -2.513000000     1.137000000    -4.029000000
C    -1.532000000     1.564000000    -5.138000000
H    -1.554000000     1.031000000    -6.090000000
C    -0.100000000     1.398000000    -4.662000000
C     0.536000000     0.205000000    -4.931000000
H     0.022000000    -0.519000000    -5.557000000
H    -1.699000000     2.616000000    -5.380000000
C    -3.021000000    -0.194000000    -4.029000000
H    -2.630000000    -0.908000000    -4.750000000
C    -3.954000000    -0.651000000    -3.043000000
C    -4.337000000    -2.096000000    -2.938000000
H    -4.173000000    -2.562000000    -3.911000000
H    -5.383000000    -2.298000000    -2.696000000
C    -3.441000000    -2.944000000    -2.053000000
C    -2.288000000    -3.611000000    -2.584000000
H    -2.094000000    -3.653000000    -3.652000000
C    -3.741000000    -2.964000000    -0.688000000
C    -2.850000000    -3.610000000     0.155000000
H    -3.099000000    -3.619000000     1.213000000
C    -1.700000000    -4.186000000    -0.317000000
O    -0.726000000    -4.680000000     0.552000000
C     0.561000000    -4.097000000     0.591000000
C     1.054000000    -4.027000000     2.042000000
C     2.391000000    -4.187000000     2.387000000
H     3.187000000    -4.372000000     1.670000000
C     0.133000000    -3.751000000     3.089000000
H    -0.938000000    -3.718000000     2.904000000
O     1.572000000    -4.732000000    -0.237000000
H     0.426000000    -3.088000000     0.173000000
C    -1.449000000    -4.235000000    -1.696000000
C    -0.241000000    -4.953000000    -2.298000000
H    -0.574000000    -5.418000000    -3.228000000
H    -0.028000000    -5.824000000    -1.674000000
C     1.012000000    -4.149000000    -2.513000000
C     1.180000000    -3.288000000    -3.556000000
H     0.451000000    -3.278000000    -4.362000000
C     1.902000000    -4.102000000    -1.462000000
C     2.974000000    -3.211000000    -1.458000000
H     3.667000000    -3.071000000    -0.632000000
C     3.167000000    -2.438000000    -2.573000000
O     4.109000000    -1.441000000    -2.496000000
C     3.691000000    -0.181000000    -2.018000000
C     4.684000000     0.317000000    -1.000000000
C     5.394000000    -0.523000000    -0.143000000
H     5.454000000    -1.597000000    -0.298000000
C     4.624000000     1.668000000    -0.690000000
H     4.144000000     2.417000000    -1.314000000
O     3.662000000     0.675000000    -3.110000000
H     2.748000000    -0.251000000    -1.455000000
C     2.240000000    -2.389000000    -3.630000000
C     2.445000000    -1.439000000    -4.821000000
H     2.025000000    -1.881000000    -5.726000000
H     3.492000000    -1.175000000    -4.983000000
C     1.830000000    -0.056000000    -4.488000000
C     2.477000000     0.901000000    -3.729000000
C     1.794000000     2.067000000    -3.348000000
H     2.261000000     2.800000000    -2.696000000
C     0.509000000     2.284000000    -3.769000000
O    -0.120000000     3.353000000    -3.225000000
C    -1.122000000     3.184000000    -2.226000000
H    -1.053000000     2.207000000    -1.724000000
C    -0.865000000     4.277000000    -1.226000000
C    -1.948000000     4.766000000    -0.351000000
H    -2.930000000     4.328000000    -0.513000000
C     0.420000000     4.809000000    -1.003000000
H     1.308000000     4.588000000    -1.588000000
C     0.608000000     5.823000000    -0.006000000
O     1.757000000     6.559000000     0.130000000
C    -0.467000000     6.299000000     0.777000000
H    -0.390000000     7.151000000     1.448000000
C    -1.725000000     5.762000000     0.581000000
O    -2.712000000     6.246000000     1.355000000
C    -3.929000000     5.699000000     1.459000000
C    -4.114000000     4.540000000     2.211000000
H    -3.336000000     4.138000000     2.856000000
C    -4.995000000     6.288000000     0.791000000
H    -4.781000000     7.190000000     0.224000000
C    -6.293000000     5.720000000     0.893000000
H    -7.123000000     6.105000000     0.306000000
C    -6.524000000     4.584000000     1.655000000
H    -7.505000000     4.121000000     1.595000000
C    -5.424000000     3.980000000     2.291000000
O    -5.655000000     2.910000000     3.103000000
C    -5.253000000     1.643000000     2.886000000
C    -5.028000000     0.835000000     3.942000000
H    -5.122000000     1.314000000     4.913000000
C    -4.663000000    -0.511000000     3.769000000
O    -4.366000000    -1.198000000     4.947000000
C    -3.698000000    -2.356000000     4.925000000
C    -2.328000000    -2.304000000     5.024000000
H    -1.858000000    -1.325000000     5.047000000
C    -4.476000000    -3.522000000     5.114000000
H    -5.555000000    -3.543000000     4.984000000
C    -3.690000000    -4.723000000     5.077000000
H    -4.237000000    -5.663000000     5.071000000
C    -2.324000000    -4.676000000     5.135000000
H    -1.856000000    -5.645000000     5.294000000
C    -1.659000000    -3.481000000     5.242000000
O    -0.271000000    -3.474000000     5.396000000
C     0.598000000    -3.598000000     4.381000000
C     1.923000000    -3.659000000     4.729000000
H     2.210000000    -3.392000000     5.743000000
C     2.841000000    -3.918000000     3.715000000
O     4.175000000    -3.938000000     4.095000000
C     5.218000000    -3.656000000     3.252000000
C     5.489000000    -2.309000000     2.949000000
H     4.850000000    -1.536000000     3.369000000
C     5.926000000    -4.617000000     2.531000000
H     5.602000000    -5.655000000     2.546000000
C     6.999000000    -4.305000000     1.691000000
H     7.508000000    -5.037000000     1.069000000
C     7.372000000    -2.985000000     1.536000000
H     8.297000000    -2.766000000     1.007000000
C     6.587000000    -2.027000000     2.102000000
O     6.899000000    -0.715000000     1.868000000
C     6.115000000     0.009000000     0.991000000
C     6.033000000     1.373000000     1.320000000
H     6.600000000     1.839000000     2.122000000
C     5.276000000     2.220000000     0.486000000
O     5.368000000     3.586000000     0.807000000
C     4.825000000     4.577000000     0.111000000
C     5.647000000     5.263000000    -0.852000000
H     6.680000000     4.942000000    -0.958000000
C     5.175000000     6.309000000    -1.503000000
H     5.745000000     6.809000000    -2.282000000
C     3.810000000     6.693000000    -1.248000000
H     3.325000000     7.503000000    -1.787000000
C     3.032000000     6.065000000    -0.270000000
C     3.568000000     4.985000000     0.390000000
H     3.009000000     4.441000000     1.147000000
C    -0.469000000     0.817000000     2.536000000
H    -1.176000000     1.377000000     3.143000000
C    -0.850000000     0.513000000     1.209000000
H    -1.743000000     0.897000000     0.721000000
C    -0.098000000    -0.291000000     0.422000000
C    -0.570000000    -0.594000000    -1.004000000
H    -1.543000000    -1.089000000    -0.996000000
H    -0.736000000     0.319000000    -1.581000000
H     0.119000000    -1.216000000    -1.580000000
C     1.107000000    -0.813000000     0.871000000
H     1.810000000    -1.310000000     0.207000000
C     1.527000000    -0.492000000     2.187000000
H     2.432000000    -0.945000000     2.584000000
C     0.689000000     0.264000000     3.005000000
C     1.028000000     0.484000000     4.455000000
O     2.049000000     0.037000000     4.997000000
O     0.455000000     1.333000000     5.149000000
O    -1.627000000     5.773000000     4.732000000
H    -1.185000000     4.946000000     4.544000000
H    -0.999000000     6.267000000     5.259000000
O     3.823000000     1.649000000     3.691000000
H     3.200000000     1.393000000     4.371000000
H     3.437000000     1.325000000     2.877000000
O     0.789000000    -1.923000000    10.229000000
H     0.474000000    -2.497000000     9.531000000
H     0.744000000    -1.043000000     9.855000000
O     2.610000000     5.976000000     7.750000000
H     2.638000000     5.020000000     7.696000000
H     3.041000000     6.273000000     6.948000000
O     1.080000000     2.695000000     8.652000000
H     1.447000000     3.009000000     7.826000000
H     1.813000000     2.726000000     9.267000000
O     4.348000000    -1.095000000     5.933000000
H     3.591000000    -0.810000000     5.421000000
H     4.047000000    -1.881000000     6.388000000
O     3.687000000     1.380000000     7.841000000
H     3.216000000     1.968000000     7.249000000
H     3.412000000     0.503000000     7.575000000
O     0.377000000     0.809000000    10.824000000
H     0.767000000     1.545000000    10.353000000
H     1.083000000     0.481000000    11.382000000
O    -4.182000000     2.134000000     7.776000000
H    -4.046000000     1.691000000     8.613000000
H    -3.350000000     2.034000000     7.314000000
O     3.007000000    -2.003000000     8.407000000
H     2.801000000    -2.579000000     9.142000000
H     2.348000000    -1.310000000     8.452000000
O     1.128000000    -0.275000000     7.820000000
H     0.902000000     0.597000000     8.145000000
H     1.034000000    -0.207000000     6.870000000
O    -0.533000000     5.242000000     8.887000000
H    -1.439000000     4.989000000     8.707000000
H    -0.078000000     4.413000000     9.039000000
O     7.709000000    -1.906000000     5.627000000
H     6.951000000    -1.342000000     5.475000000
H     8.451000000    -1.408000000     5.282000000
O     5.886000000     3.388000000     7.195000000
H     5.758000000     2.476000000     6.934000000
H     5.632000000     3.411000000     8.117000000
O     3.022000000     4.402000000     4.116000000
H     3.246000000     5.331000000     4.172000000
H     3.850000000     3.969000000     3.906000000
O     5.914000000     0.852000000     5.113000000
H     5.296000000     0.294000000     5.585000000
H     5.402000000     1.224000000     4.395000000
O     0.480000000     3.969000000     4.093000000
H     0.646000000     3.062000000     4.351000000
H     1.345000000     4.320000000     3.880000000
O     2.284000000     2.912000000     6.143000000
H     2.448000000     3.682000000     5.598000000
H     1.781000000     2.323000000     5.581000000
O    -1.669000000     2.615000000     6.431000000
H    -0.975000000     2.269000000     5.870000000
H    -1.206000000     3.089000000     7.121000000
