218
-1475.79953
C    -3.840000000     0.083000000     2.707000000
H    -3.433000000    -0.920000000     2.610000000
C    -4.188000000     0.776000000     1.575000000
C    -4.466000000     2.135000000     1.616000000
H    -4.679000000     2.674000000     0.696000000
C    -4.029000000     0.080000000     0.210000000
O    -4.755000000    -1.102000000     0.181000000
H    -2.966000000    -0.175000000     0.084000000
O    -4.500000000     0.985000000    -0.859000000
C    -3.779000000     1.107000000    -2.047000000
C    -3.037000000     2.262000000    -2.233000000
H    -3.114000000     3.045000000    -1.483000000
C    -2.278000000     2.424000000    -3.341000000
O    -1.355000000     3.465000000    -3.375000000
C    -2.074000000     1.334000000    -4.239000000
C    -1.100000000     1.331000000    -5.450000000
H    -1.555000000     0.779000000    -6.275000000
C     0.345000000     0.854000000    -5.134000000
C     0.792000000    -0.447000000    -5.301000000
H     0.051000000    -1.126000000    -5.715000000
H    -0.981000000     2.334000000    -5.863000000
C    -2.844000000     0.175000000    -4.091000000
H    -2.641000000    -0.729000000    -4.660000000
C    -3.694000000     0.067000000    -2.955000000
C    -4.510000000    -1.182000000    -2.718000000
H    -4.674000000    -1.616000000    -3.706000000
H    -5.477000000    -0.878000000    -2.313000000
C    -3.847000000    -2.239000000    -1.825000000
C    -3.055000000    -3.182000000    -2.375000000
H    -2.806000000    -3.185000000    -3.434000000
C    -4.028000000    -2.159000000    -0.403000000
C    -3.477000000    -3.148000000     0.486000000
H    -3.695000000    -3.124000000     1.551000000
C    -2.653000000    -4.099000000    -0.128000000
O    -1.940000000    -4.933000000     0.736000000
C    -0.608000000    -4.450000000     0.961000000
C    -0.193000000    -4.435000000     2.459000000
C     1.164000000    -4.399000000     2.907000000
H     1.979000000    -4.296000000     2.195000000
C    -1.225000000    -4.481000000     3.362000000
H    -2.257000000    -4.605000000     3.046000000
O     0.334000000    -5.176000000     0.156000000
H    -0.702000000    -3.372000000     0.761000000
C    -2.372000000    -4.118000000    -1.529000000
C    -1.398000000    -5.097000000    -2.125000000
H    -1.752000000    -5.276000000    -3.143000000
H    -1.235000000    -6.088000000    -1.697000000
C     0.017000000    -4.411000000    -2.061000000
C     0.483000000    -3.743000000    -3.195000000
H    -0.058000000    -3.761000000    -4.138000000
C     0.821000000    -4.527000000    -0.952000000
C     2.053000000    -3.876000000    -0.906000000
H     2.675000000    -3.938000000    -0.016000000
C     2.448000000    -3.154000000    -1.981000000
O     3.610000000    -2.417000000    -1.894000000
C     3.448000000    -1.009000000    -1.900000000
C     4.378000000    -0.374000000    -0.794000000
C     4.436000000    -0.916000000     0.479000000
H     3.915000000    -1.847000000     0.690000000
C     4.987000000     0.920000000    -0.958000000
H     4.957000000     1.440000000    -1.912000000
O     3.803000000    -0.440000000    -3.207000000
H     2.429000000    -0.714000000    -1.607000000
C     1.720000000    -3.067000000    -3.176000000
C     2.201000000    -2.400000000    -4.445000000
H     1.701000000    -2.943000000    -5.251000000
H     3.265000000    -2.608000000    -4.572000000
C     1.892000000    -0.892000000    -4.638000000
C     2.709000000    -0.042000000    -3.897000000
C     2.330000000     1.318000000    -3.838000000
H     2.942000000     2.049000000    -3.317000000
C     1.184000000     1.756000000    -4.438000000
O     0.800000000     3.009000000    -4.016000000
C    -0.050000000     3.165000000    -2.920000000
H    -0.112000000     2.237000000    -2.333000000
C     0.412000000     4.293000000    -2.019000000
C    -0.478000000     4.724000000    -1.028000000
H    -1.511000000     4.388000000    -1.014000000
C     1.758000000     4.792000000    -1.992000000
H     2.472000000     4.475000000    -2.748000000
C     2.150000000     5.846000000    -1.140000000
O     3.406000000     6.403000000    -1.126000000
C     1.227000000     6.217000000    -0.131000000
H     1.531000000     7.039000000     0.512000000
C    -0.115000000     5.757000000    -0.097000000
O    -1.024000000     6.299000000     0.823000000
C    -2.325000000     5.977000000     0.826000000
C    -2.762000000     5.126000000     1.838000000
H    -2.122000000     4.629000000     2.562000000
C    -3.188000000     6.505000000    -0.113000000
H    -2.836000000     7.177000000    -0.891000000
C    -4.607000000     6.253000000    -0.069000000
H    -5.226000000     6.643000000    -0.873000000
C    -5.056000000     5.422000000     0.940000000
H    -6.125000000     5.295000000     1.088000000
C    -4.146000000     4.934000000     1.943000000
O    -4.714000000     4.103000000     2.960000000
C    -4.489000000     2.753000000     2.870000000
C    -4.205000000     2.012000000     4.024000000
H    -4.247000000     2.513000000     4.988000000
C    -3.960000000     0.712000000     3.947000000
O    -3.549000000     0.082000000     5.113000000
C    -3.827000000    -1.149000000     5.414000000
C    -2.800000000    -2.105000000     5.347000000
H    -1.758000000    -1.846000000     5.179000000
C    -5.136000000    -1.562000000     5.682000000
H    -5.997000000    -0.903000000     5.614000000
C    -5.332000000    -2.921000000     5.944000000
H    -6.305000000    -3.312000000     6.229000000
C    -4.299000000    -3.833000000     6.037000000
H    -4.541000000    -4.826000000     6.406000000
C    -3.041000000    -3.439000000     5.630000000
O    -2.021000000    -4.427000000     5.624000000
C    -0.983000000    -4.367000000     4.713000000
C     0.302000000    -4.268000000     5.234000000
H     0.544000000    -4.139000000     6.286000000
C     1.388000000    -4.365000000     4.341000000
O     2.676000000    -4.408000000     4.875000000
C     3.831000000    -4.020000000     4.186000000
C     3.920000000    -2.678000000     3.830000000
H     3.205000000    -1.993000000     4.280000000
C     4.783000000    -4.991000000     3.807000000
H     4.730000000    -6.019000000     4.158000000
C     5.769000000    -4.623000000     2.870000000
H     6.598000000    -5.257000000     2.568000000
C     5.819000000    -3.274000000     2.456000000
H     6.619000000    -2.907000000     1.818000000
C     4.935000000    -2.263000000     3.012000000
O     5.237000000    -0.921000000     2.795000000
C     5.184000000    -0.373000000     1.484000000
C     5.846000000     0.859000000     1.287000000
H     6.325000000     1.378000000     2.114000000
C     5.762000000     1.429000000     0.069000000
O     6.310000000     2.692000000    -0.076000000
C     5.934000000     3.738000000    -0.968000000
C     6.782000000     4.180000000    -2.002000000
H     7.785000000     3.776000000    -2.113000000
C     6.435000000     5.289000000    -2.768000000
H     7.082000000     5.609000000    -3.581000000
C     5.333000000     6.083000000    -2.456000000
H     5.102000000     7.004000000    -2.986000000
C     4.421000000     5.615000000    -1.485000000
C     4.720000000     4.451000000    -0.736000000
H     3.987000000     4.033000000    -0.051000000
C    -0.700000000     1.547000000     1.680000000
H    -1.396000000     2.305000000     2.029000000
C    -0.740000000     1.056000000     0.394000000
H    -1.583000000     1.392000000    -0.203000000
C     0.024000000     0.039000000    -0.051000000
C    -0.226000000    -0.628000000    -1.449000000
H    -1.288000000    -0.651000000    -1.701000000
H     0.275000000    -0.034000000    -2.216000000
H     0.026000000    -1.690000000    -1.411000000
C     0.820000000    -0.610000000     0.860000000
H     1.367000000    -1.513000000     0.601000000
C     1.042000000    -0.121000000     2.146000000
H     1.762000000    -0.648000000     2.767000000
C     0.233000000     0.974000000     2.580000000
C     0.417000000     1.493000000     3.979000000
O     1.464000000     1.225000000     4.551000000
O    -0.333000000     2.276000000     4.428000000
O     0.132000000     6.473000000     3.322000000
H     0.452000000     7.373000000     3.261000000
H    -0.231000000     6.289000000     2.455000000
O     2.005000000     3.808000000     1.763000000
H     1.802000000     2.925000000     1.455000000
H     1.835000000     3.779000000     2.705000000
O    -2.060000000     6.850000000     5.829000000
H    -2.672000000     7.174000000     5.168000000
H    -2.464000000     6.046000000     6.156000000
O     2.587000000    -0.108000000     9.709000000
H     2.282000000     0.587000000     9.125000000
H     2.526000000    -0.905000000     9.183000000
O     1.995000000     3.941000000     8.994000000
H     1.225000000     3.437000000     9.256000000
H     2.489000000     4.063000000     9.805000000
O     1.190000000    -1.052000000     5.740000000
H     1.326000000    -0.177000000     5.377000000
H     0.284000000    -1.043000000     6.051000000
O     0.353000000     6.209000000     7.215000000
H     0.668000000     5.505000000     6.648000000
H    -0.496000000     6.452000000     6.847000000
O    -2.835000000     4.434000000     6.316000000
H    -3.725000000     4.734000000     6.502000000
H    -2.837000000     4.249000000     5.377000000
O     5.856000000     4.014000000     6.192000000
H     5.932000000     3.715000000     5.286000000
H     4.924000000     4.204000000     6.304000000
O    -1.013000000    -0.534000000     7.413000000
H    -0.638000000    -0.389000000     8.282000000
H    -1.484000000     0.276000000     7.217000000
O    -0.143000000     2.419000000     9.345000000
H    -0.543000000     2.460000000     8.476000000
H    -0.664000000     1.770000000     9.818000000
O     3.164000000     4.518000000     6.522000000
H     2.329000000     4.508000000     6.054000000
H     2.920000000     4.510000000     7.447000000
O     5.881000000     3.424000000     3.524000000
H     5.250000000     2.798000000     3.879000000
H     5.353000000     4.025000000     2.998000000
O     3.280000000     6.182000000     2.828000000
H     3.099000000     6.085000000     3.763000000
H     2.829000000     5.444000000     2.418000000
O     4.087000000     1.759000000     4.356000000
H     4.367000000     0.848000000     4.270000000
H     3.162000000     1.704000000     4.594000000
O     2.522000000    -2.430000000     8.139000000
H     2.083000000    -2.181000000     7.326000000
H     2.943000000    -3.266000000     7.938000000
O     1.099000000     4.572000000     5.017000000
H     0.633000000     3.767000000     4.788000000
H     0.926000000     5.165000000     4.285000000
O     1.950000000     1.607000000     7.238000000
H     1.992000000     2.521000000     7.518000000
H     1.477000000     1.633000000     6.406000000
O    -1.367000000     2.316000000     6.885000000
H    -1.011000000     2.238000000     6.000000000
H    -1.792000000     3.173000000     6.898000000
