218
-1464.90390
C    -4.210000000    -2.187000000     3.238000000
H    -3.933000000    -3.135000000     2.784000000
C    -4.350000000    -1.090000000     2.412000000
C    -4.666000000     0.110000000     2.984000000
H    -4.762000000     0.917000000     2.262000000
C    -4.130000000    -1.239000000     0.888000000
O    -4.471000000    -2.517000000     0.379000000
H    -3.054000000    -1.050000000     0.760000000
O    -4.909000000    -0.240000000     0.197000000
C    -4.354000000     0.371000000    -0.909000000
C    -3.962000000     1.670000000    -0.738000000
H    -4.084000000     2.131000000     0.239000000
C    -3.284000000     2.264000000    -1.754000000
O    -2.707000000     3.524000000    -1.527000000
C    -3.276000000     1.665000000    -3.053000000
C    -2.639000000     2.525000000    -4.168000000
H    -3.130000000     2.185000000    -5.081000000
C    -1.125000000     2.434000000    -4.143000000
C    -0.623000000     1.392000000    -4.894000000
H    -1.224000000     0.720000000    -5.503000000
H    -2.957000000     3.560000000    -4.024000000
C    -3.782000000     0.397000000    -3.193000000
H    -3.641000000    -0.131000000    -4.133000000
C    -4.400000000    -0.277000000    -2.139000000
C    -4.890000000    -1.684000000    -2.314000000
H    -5.190000000    -1.903000000    -3.341000000
H    -5.705000000    -1.919000000    -1.626000000
C    -3.744000000    -2.627000000    -1.874000000
C    -2.748000000    -3.027000000    -2.820000000
H    -2.755000000    -2.610000000    -3.824000000
C    -3.707000000    -3.071000000    -0.573000000
C    -2.649000000    -3.908000000    -0.174000000
H    -2.614000000    -4.181000000     0.877000000
C    -1.716000000    -4.372000000    -1.100000000
O    -0.602000000    -4.976000000    -0.532000000
C     0.673000000    -4.194000000    -0.610000000
C     1.449000000    -4.213000000     0.726000000
C     2.826000000    -4.305000000     0.832000000
H     3.455000000    -4.446000000    -0.044000000
C     0.664000000    -4.114000000     1.888000000
H    -0.392000000    -3.883000000     1.766000000
O     1.564000000    -4.467000000    -1.784000000
H     0.286000000    -3.169000000    -0.712000000
C    -1.764000000    -3.970000000    -2.481000000
C    -0.747000000    -4.386000000    -3.461000000
H    -1.217000000    -4.567000000    -4.430000000
H    -0.491000000    -5.387000000    -3.106000000
C     0.464000000    -3.346000000    -3.659000000
C     0.434000000    -2.318000000    -4.608000000
H    -0.423000000    -2.297000000    -5.276000000
C     1.635000000    -3.550000000    -2.843000000
C     2.633000000    -2.575000000    -2.897000000
H     3.546000000    -2.601000000    -2.308000000
C     2.513000000    -1.495000000    -3.766000000
O     3.468000000    -0.466000000    -3.655000000
C     3.172000000     0.776000000    -3.100000000
C     4.219000000     1.116000000    -2.045000000
C     5.019000000     0.122000000    -1.395000000
H     5.011000000    -0.916000000    -1.717000000
C     4.305000000     2.421000000    -1.568000000
H     3.598000000     3.174000000    -1.909000000
O     2.904000000     1.771000000    -4.107000000
H     2.196000000     0.672000000    -2.603000000
C     1.430000000    -1.386000000    -4.670000000
C     1.316000000    -0.147000000    -5.596000000
H     0.686000000    -0.359000000    -6.463000000
H     2.286000000    -0.018000000    -6.079000000
C     0.756000000     1.075000000    -4.909000000
C     1.577000000     2.016000000    -4.271000000
C     1.087000000     3.078000000    -3.515000000
H     1.772000000     3.839000000    -3.150000000
C    -0.248000000     3.232000000    -3.391000000
O    -0.660000000     4.171000000    -2.449000000
C    -1.285000000     3.558000000    -1.286000000
H    -0.845000000     2.558000000    -1.162000000
C    -0.965000000     4.443000000    -0.126000000
C    -1.665000000     4.287000000     1.066000000
H    -2.544000000     3.650000000     1.024000000
C     0.051000000     5.391000000    -0.162000000
H     0.623000000     5.627000000    -1.056000000
C     0.385000000     6.056000000     0.993000000
O     1.479000000     6.886000000     0.976000000
C    -0.199000000     5.714000000     2.224000000
H     0.198000000     6.146000000     3.139000000
C    -1.309000000     4.886000000     2.270000000
O    -1.869000000     4.634000000     3.470000000
C    -3.152000000     4.105000000     3.631000000
C    -3.460000000     2.972000000     4.363000000
H    -2.645000000     2.345000000     4.715000000
C    -4.175000000     4.775000000     2.920000000
H    -3.993000000     5.690000000     2.362000000
C    -5.464000000     4.311000000     3.069000000
H    -6.282000000     4.870000000     2.621000000
C    -5.776000000     3.217000000     3.860000000
H    -6.795000000     2.868000000     4.005000000
C    -4.787000000     2.482000000     4.352000000
O    -5.095000000     1.340000000     4.975000000
C    -4.839000000     0.191000000     4.386000000
C    -4.586000000    -0.907000000     5.250000000
H    -4.604000000    -0.902000000     6.337000000
C    -4.236000000    -2.114000000     4.610000000
O    -4.093000000    -3.284000000     5.342000000
C    -2.891000000    -4.010000000     5.288000000
C    -1.733000000    -3.371000000     4.754000000
H    -1.723000000    -2.320000000     4.477000000
C    -2.854000000    -5.157000000     5.974000000
H    -3.764000000    -5.528000000     6.438000000
C    -1.604000000    -5.778000000     6.092000000
H    -1.409000000    -6.617000000     6.754000000
C    -0.449000000    -5.248000000     5.522000000
H     0.527000000    -5.716000000     5.618000000
C    -0.599000000    -4.092000000     4.739000000
O     0.559000000    -3.452000000     4.259000000
C     1.302000000    -3.843000000     3.127000000
C     2.649000000    -3.794000000     3.159000000
H     3.056000000    -3.607000000     4.150000000
C     3.470000000    -4.026000000     2.067000000
O     4.883000000    -4.143000000     2.330000000
C     5.875000000    -3.620000000     1.465000000
C     5.854000000    -2.263000000     1.213000000
H     5.159000000    -1.586000000     1.703000000
C     6.669000000    -4.508000000     0.738000000
H     6.637000000    -5.574000000     0.949000000
C     7.477000000    -3.980000000    -0.254000000
H     8.082000000    -4.635000000    -0.876000000
C     7.575000000    -2.612000000    -0.430000000
H     8.337000000    -2.122000000    -1.031000000
C     6.699000000    -1.773000000     0.239000000
O     6.908000000    -0.433000000     0.119000000
C     5.971000000     0.467000000    -0.393000000
C     6.032000000     1.749000000     0.066000000
H     6.603000000     1.920000000     0.975000000
C     5.241000000     2.725000000    -0.520000000
O     5.154000000     3.914000000     0.133000000
C     4.385000000     5.049000000    -0.153000000
C     4.654000000     5.676000000    -1.406000000
H     5.472000000     5.290000000    -2.009000000
C     3.966000000     6.850000000    -1.701000000
H     4.285000000     7.479000000    -2.529000000
C     2.972000000     7.301000000    -0.808000000
H     2.400000000     8.195000000    -1.041000000
C     2.619000000     6.591000000     0.292000000
C     3.349000000     5.421000000     0.641000000
H     3.165000000     4.753000000     1.478000000
C    -0.526000000     0.871000000     2.455000000
H    -1.208000000     1.472000000     3.051000000
C    -0.788000000     0.703000000     1.056000000
H    -1.678000000     1.178000000     0.650000000
C     0.125000000    -0.005000000     0.291000000
C    -0.061000000    -0.074000000    -1.198000000
H     0.503000000     0.689000000    -1.739000000
H     0.330000000    -1.034000000    -1.541000000
H    -1.125000000    -0.073000000    -1.445000000
C     1.237000000    -0.559000000     0.834000000
H     1.926000000    -1.196000000     0.286000000
C     1.495000000    -0.366000000     2.148000000
H     2.273000000    -1.015000000     2.540000000
C     0.649000000     0.356000000     2.986000000
C     1.060000000     0.405000000     4.393000000
O     2.187000000     0.228000000     4.769000000
O     0.266000000     0.881000000     5.134000000
O     4.685000000     0.150000000     3.900000000
H     3.752000000     0.056000000     4.090000000
H     4.796000000     1.078000000     3.694000000
O    -2.354000000     1.295000000     8.589000000
H    -1.588000000     0.824000000     8.918000000
H    -2.009000000     1.862000000     7.899000000
O    -2.344000000    -2.424000000     7.885000000
H    -1.895000000    -1.581000000     7.948000000
H    -2.086000000    -2.769000000     7.030000000
O     0.299000000     0.726000000     9.828000000
H     0.307000000     1.200000000     8.996000000
H     1.036000000     1.090000000    10.318000000
O     0.108000000     2.388000000     7.388000000
H     0.095000000     1.805000000     6.629000000
H     0.625000000     3.141000000     7.103000000
O     2.948000000    -1.139000000     6.981000000
H     2.600000000    -0.569000000     6.295000000
H     3.629000000    -1.651000000     6.545000000
O     0.891000000    -2.072000000    10.202000000
H     0.595000000    -1.283000000     9.748000000
H     0.913000000    -2.746000000     9.523000000
O     6.196000000     0.510000000     6.782000000
H     6.672000000    -0.313000000     6.893000000
H     6.836000000     1.106000000     6.393000000
O     1.255000000    -3.637000000     8.108000000
H     1.062000000    -3.376000000     7.207000000
H     2.069000000    -3.181000000     8.320000000
O     3.873000000    -0.723000000     9.498000000
H     3.627000000    -0.820000000     8.578000000
H     3.268000000    -1.295000000     9.969000000
O     3.106000000     3.110000000     9.303000000
H     3.028000000     2.521000000    10.053000000
H     3.366000000     2.541000000     8.578000000
O     1.582000000     4.637000000     7.064000000
H     2.193000000     4.525000000     7.793000000
H     1.343000000     5.563000000     7.091000000
O     5.778000000     2.683000000     3.400000000
H     6.624000000     2.872000000     3.807000000
H     5.156000000     3.235000000     3.874000000
O     5.935000000     4.012000000     6.866000000
H     5.163000000     3.585000000     6.496000000
H     6.138000000     3.502000000     7.650000000
O     4.341000000     4.967000000     4.239000000
H     3.542000000     4.458000000     4.102000000
H     4.039000000     5.785000000     4.636000000
O     4.865000000    -2.502000000     5.543000000
H     5.771000000    -2.295000000     5.773000000
H     4.672000000    -1.936000000     4.796000000
O     1.960000000     3.730000000     4.185000000
H     1.766000000     2.801000000     4.312000000
H     1.855000000     4.117000000     5.054000000
O     3.790000000     1.977000000     6.550000000
H     4.492000000     1.345000000     6.707000000
H     3.193000000     1.529000000     5.952000000
O    -0.022000000    -1.017000000     6.794000000
H     0.829000000    -0.726000000     7.121000000
H    -0.150000000    -0.523000000     5.984000000
