218
-1495.64973
C    -3.552000000    -1.598000000     3.265000000
H    -3.330000000    -2.592000000     2.885000000
C    -4.098000000    -0.679000000     2.375000000
C    -4.586000000     0.570000000     2.910000000
H    -5.055000000     1.370000000     2.343000000
C    -4.065000000    -0.986000000     0.923000000
O    -4.308000000    -2.365000000     0.668000000
H    -3.087000000    -0.639000000     0.558000000
O    -5.046000000    -0.193000000     0.201000000
C    -4.577000000     0.515000000    -0.846000000
C    -4.114000000     1.810000000    -0.752000000
H    -4.126000000     2.354000000     0.189000000
C    -3.472000000     2.413000000    -1.801000000
O    -2.856000000     3.592000000    -1.511000000
C    -3.280000000     1.781000000    -3.064000000
C    -2.575000000     2.482000000    -4.271000000
H    -2.929000000     2.058000000    -5.213000000
C    -1.054000000     2.335000000    -4.215000000
C    -0.462000000     1.296000000    -4.925000000
H    -1.135000000     0.631000000    -5.460000000
H    -2.850000000     3.537000000    -4.324000000
C    -3.783000000     0.518000000    -3.165000000
H    -3.584000000    -0.005000000    -4.097000000
C    -4.389000000    -0.166000000    -2.072000000
C    -4.747000000    -1.615000000    -2.256000000
H    -4.935000000    -1.906000000    -3.292000000
H    -5.643000000    -1.785000000    -1.655000000
C    -3.692000000    -2.556000000    -1.704000000
C    -2.777000000    -3.060000000    -2.633000000
H    -2.770000000    -2.710000000    -3.662000000
C    -3.531000000    -2.902000000    -0.328000000
C    -2.418000000    -3.770000000     0.032000000
H    -2.285000000    -4.002000000     1.086000000
C    -1.654000000    -4.382000000    -0.950000000
O    -0.566000000    -5.139000000    -0.509000000
C     0.684000000    -4.403000000    -0.368000000
C     1.385000000    -4.700000000     0.944000000
C     2.779000000    -4.549000000     1.034000000
H     3.312000000    -4.249000000     0.136000000
C     0.655000000    -5.017000000     2.043000000
H    -0.430000000    -4.999000000     1.982000000
O     1.541000000    -4.508000000    -1.539000000
H     0.381000000    -3.348000000    -0.297000000
C    -1.812000000    -3.996000000    -2.302000000
C    -0.788000000    -4.402000000    -3.318000000
H    -1.286000000    -4.451000000    -4.289000000
H    -0.470000000    -5.431000000    -3.136000000
C     0.377000000    -3.458000000    -3.424000000
C     0.411000000    -2.387000000    -4.331000000
H    -0.459000000    -2.341000000    -4.980000000
C     1.477000000    -3.560000000    -2.496000000
C     2.457000000    -2.627000000    -2.498000000
H     3.288000000    -2.761000000    -1.811000000
C     2.576000000    -1.661000000    -3.501000000
O     3.574000000    -0.736000000    -3.395000000
C     3.282000000     0.474000000    -2.783000000
C     4.360000000     0.954000000    -1.831000000
C     5.014000000     0.047000000    -0.986000000
H     4.704000000    -0.989000000    -1.094000000
C     4.708000000     2.282000000    -1.626000000
H     4.014000000     2.973000000    -2.099000000
O     2.949000000     1.561000000    -3.687000000
H     2.445000000     0.337000000    -2.083000000
C     1.480000000    -1.526000000    -4.359000000
C     1.441000000    -0.358000000    -5.337000000
H     0.901000000    -0.647000000    -6.241000000
H     2.481000000    -0.188000000    -5.622000000
C     0.825000000     0.945000000    -4.768000000
C     1.661000000     1.803000000    -3.990000000
C     1.071000000     2.906000000    -3.407000000
H     1.633000000     3.473000000    -2.669000000
C    -0.256000000     3.164000000    -3.440000000
O    -0.807000000     4.059000000    -2.553000000
C    -1.445000000     3.671000000    -1.347000000
H    -1.023000000     2.659000000    -1.264000000
C    -1.040000000     4.467000000    -0.171000000
C    -1.998000000     4.764000000     0.792000000
H    -3.045000000     4.486000000     0.693000000
C     0.317000000     4.884000000     0.025000000
H     1.112000000     4.651000000    -0.678000000
C     0.652000000     5.594000000     1.166000000
O     1.916000000     6.186000000     1.282000000
C    -0.347000000     5.847000000     2.146000000
H    -0.127000000     6.393000000     3.060000000
C    -1.649000000     5.361000000     1.948000000
O    -2.536000000     5.722000000     2.819000000
C    -3.764000000     5.008000000     3.097000000
C    -3.678000000     3.906000000     3.863000000
H    -2.775000000     3.681000000     4.425000000
C    -4.882000000     5.413000000     2.458000000
H    -4.881000000     6.176000000     1.684000000
C    -6.101000000     4.689000000     2.751000000
H    -6.961000000     5.077000000     2.211000000
C    -6.103000000     3.597000000     3.603000000
H    -7.001000000     2.992000000     3.695000000
C    -4.853000000     3.194000000     4.112000000
O    -4.832000000     1.990000000     4.810000000
C    -4.386000000     0.832000000     4.247000000
C    -3.622000000     0.046000000     5.052000000
H    -3.439000000     0.280000000     6.098000000
C    -3.231000000    -1.219000000     4.549000000
O    -2.334000000    -1.994000000     5.271000000
C    -2.166000000    -3.332000000     5.002000000
C    -0.951000000    -3.814000000     4.714000000
H    -0.155000000    -3.079000000     4.627000000
C    -3.196000000    -4.256000000     5.438000000
H    -4.154000000    -3.870000000     5.778000000
C    -2.958000000    -5.634000000     5.381000000
H    -3.721000000    -6.332000000     5.712000000
C    -1.725000000    -6.100000000     4.977000000
H    -1.734000000    -7.187000000     4.948000000
C    -0.721000000    -5.205000000     4.620000000
O     0.529000000    -5.705000000     4.322000000
C     1.253000000    -5.285000000     3.245000000
C     2.685000000    -5.275000000     3.302000000
H     3.211000000    -5.504000000     4.225000000
C     3.475000000    -4.823000000     2.213000000
O     4.839000000    -4.563000000     2.381000000
C     5.615000000    -3.924000000     1.456000000
C     5.754000000    -2.526000000     1.519000000
H     5.197000000    -2.017000000     2.302000000
C     6.215000000    -4.626000000     0.391000000
H     6.032000000    -5.692000000     0.288000000
C     6.901000000    -3.957000000    -0.549000000
H     7.419000000    -4.460000000    -1.361000000
C     7.098000000    -2.575000000    -0.460000000
H     7.619000000    -2.054000000    -1.259000000
C     6.525000000    -1.839000000     0.574000000
O     6.711000000    -0.496000000     0.692000000
C     6.028000000     0.439000000    -0.068000000
C     6.370000000     1.769000000     0.067000000
H     7.132000000     2.149000000     0.743000000
C     5.651000000     2.710000000    -0.726000000
O     5.922000000     4.025000000    -0.468000000
C     4.958000000     5.071000000    -0.560000000
C     5.113000000     6.048000000    -1.512000000
H     5.970000000     6.049000000    -2.181000000
C     4.226000000     7.143000000    -1.446000000
H     4.256000000     7.882000000    -2.243000000
C     3.252000000     7.235000000    -0.460000000
H     2.643000000     8.136000000    -0.464000000
C     3.011000000     6.085000000     0.400000000
C     3.915000000     5.000000000     0.392000000
H     3.769000000     4.137000000     1.036000000
C    -0.915000000     0.628000000     2.827000000
H    -1.510000000     1.244000000     3.495000000
C    -1.106000000     0.655000000     1.458000000
H    -1.824000000     1.345000000     1.023000000
C    -0.294000000    -0.111000000     0.714000000
C    -0.379000000    -0.033000000    -0.768000000
H    -1.403000000    -0.267000000    -1.067000000
H    -0.091000000     0.948000000    -1.153000000
H     0.323000000    -0.782000000    -1.139000000
C     0.753000000    -0.828000000     1.268000000
H     1.443000000    -1.352000000     0.612000000
C     0.894000000    -0.895000000     2.615000000
H     1.774000000    -1.449000000     2.931000000
C     0.083000000    -0.107000000     3.393000000
C     0.160000000    -0.062000000     4.866000000
O     0.995000000    -0.697000000     5.467000000
O    -0.540000000     0.698000000     5.542000000
O     1.837000000     0.486000000     7.711000000
H     1.867000000     1.421000000     7.507000000
H     1.646000000     0.065000000     6.873000000
O     0.115000000    -1.969000000     9.583000000
H    -0.453000000    -1.545000000     8.939000000
H     0.623000000    -2.601000000     9.075000000
O     6.088000000    -1.148000000     5.076000000
H     5.172000000    -1.397000000     5.195000000
H     6.236000000    -0.460000000     5.725000000
O    -1.555000000    -0.707000000     7.732000000
H    -0.992000000    -0.384000000     7.028000000
H    -2.105000000    -1.370000000     7.314000000
O    -2.665000000     0.046000000    10.175000000
H    -2.031000000     0.431000000    10.780000000
H    -2.174000000    -0.082000000     9.363000000
O     0.729000000    -2.976000000     7.159000000
H     0.810000000    -2.444000000     6.368000000
H     1.489000000    -2.735000000     7.690000000
O     3.653000000     0.819000000     3.650000000
H     3.431000000     0.157000000     4.304000000
H     4.492000000     1.174000000     3.944000000
O     4.171000000     3.605000000     6.216000000
H     4.014000000     3.821000000     5.297000000
H     3.298000000     3.452000000     6.579000000
O    -0.137000000     1.199000000     9.971000000
H     0.442000000     0.460000000     9.784000000
H    -0.358000000     1.554000000     9.110000000
O    -0.645000000    -5.246000000     8.278000000
H    -0.292000000    -4.470000000     7.843000000
H    -1.344000000    -4.909000000     8.839000000
O    -0.774000000     5.316000000     6.070000000
H    -0.512000000     4.648000000     5.437000000
H    -0.050000000     5.943000000     6.070000000
O     1.851000000     2.565000000     2.657000000
H     1.208000000     2.182000000     2.061000000
H     2.592000000     1.960000000     2.631000000
O     3.957000000     4.217000000     3.515000000
H     3.032000000     3.975000000     3.481000000
H     4.425000000     3.400000000     3.339000000
O     3.422000000    -1.665000000     5.362000000
H     3.222000000    -2.600000000     5.331000000
H     2.574000000    -1.235000000     5.252000000
O     0.153000000     3.274000000     4.668000000
H     0.797000000     2.990000000     4.019000000
H    -0.151000000     2.462000000     5.074000000
O    -1.435000000     2.537000000     7.239000000
H    -2.327000000     2.352000000     7.536000000
H    -1.207000000     1.791000000     6.685000000
O     2.800000000    -2.812000000     8.863000000
H     3.240000000    -1.962000000     8.879000000
H     3.062000000    -3.232000000     9.683000000
O     3.646000000    -0.326000000     9.641000000
H     4.070000000     0.507000000     9.846000000
H     2.958000000    -0.098000000     9.016000000
O     1.522000000     3.257000000     7.299000000
H     1.484000000     3.801000000     8.085000000
H     0.647000000     3.328000000     6.916000000
