218
-1476.79451
C    -3.591000000    -0.100000000     2.389000000
H    -3.231000000    -1.083000000     2.097000000
C    -4.191000000     0.633000000     1.384000000
C    -4.545000000     1.988000000     1.560000000
H    -4.952000000     2.549000000     0.722000000
C    -4.144000000    -0.052000000    -0.054000000
O    -4.542000000    -1.454000000    -0.161000000
H    -3.057000000    -0.111000000    -0.212000000
O    -4.821000000     0.803000000    -0.992000000
C    -4.113000000     1.172000000    -2.075000000
C    -3.481000000     2.426000000    -2.060000000
H    -3.682000000     3.149000000    -1.274000000
C    -2.574000000     2.766000000    -3.094000000
O    -1.799000000     3.860000000    -2.907000000
C    -2.244000000     1.827000000    -4.147000000
C    -1.051000000     2.123000000    -5.183000000
H    -1.216000000     1.430000000    -6.012000000
C     0.272000000     1.689000000    -4.514000000
C     0.686000000     0.413000000    -4.773000000
H     0.072000000    -0.108000000    -5.505000000
H    -0.992000000     3.158000000    -5.526000000
C    -2.884000000     0.595000000    -4.129000000
H    -2.653000000    -0.075000000    -4.953000000
C    -3.839000000     0.296000000    -3.107000000
C    -4.527000000    -1.081000000    -3.072000000
H    -4.636000000    -1.478000000    -4.084000000
H    -5.518000000    -0.953000000    -2.632000000
C    -3.757000000    -2.217000000    -2.331000000
C    -2.854000000    -2.958000000    -3.052000000
H    -2.684000000    -2.839000000    -4.119000000
C    -3.864000000    -2.332000000    -0.945000000
C    -3.201000000    -3.328000000    -0.269000000
H    -3.208000000    -3.300000000     0.818000000
C    -2.335000000    -4.140000000    -0.985000000
O    -1.500000000    -4.989000000    -0.240000000
C    -0.222000000    -4.417000000     0.123000000
C     0.188000000    -4.694000000     1.573000000
C     1.519000000    -4.831000000     1.917000000
H     2.230000000    -4.817000000     1.095000000
C    -0.806000000    -4.625000000     2.568000000
H    -1.877000000    -4.673000000     2.389000000
O     0.756000000    -4.932000000    -0.797000000
H    -0.413000000    -3.340000000     0.012000000
C    -2.072000000    -3.916000000    -2.372000000
C    -0.996000000    -4.757000000    -3.201000000
H    -1.353000000    -4.851000000    -4.229000000
H    -0.953000000    -5.804000000    -2.892000000
C     0.419000000    -4.138000000    -3.040000000
C     0.871000000    -3.213000000    -3.984000000
H     0.220000000    -3.028000000    -4.834000000
C     1.181000000    -4.257000000    -1.885000000
C     2.382000000    -3.586000000    -1.676000000
H     3.010000000    -3.662000000    -0.791000000
C     2.723000000    -2.658000000    -2.609000000
O     3.848000000    -1.940000000    -2.392000000
C     3.736000000    -0.545000000    -1.907000000
C     4.618000000    -0.343000000    -0.701000000
C     5.181000000    -1.456000000     0.001000000
H     4.961000000    -2.473000000    -0.316000000
C     4.749000000     0.947000000    -0.124000000
H     4.255000000     1.788000000    -0.603000000
O     3.937000000     0.461000000    -2.933000000
H     2.729000000    -0.365000000    -1.503000000
C     2.027000000    -2.484000000    -3.786000000
C     2.431000000    -1.363000000    -4.744000000
H     2.148000000    -1.574000000    -5.777000000
H     3.519000000    -1.396000000    -4.834000000
C     1.978000000     0.006000000    -4.349000000
C     2.709000000     0.868000000    -3.513000000
C     2.196000000     2.085000000    -3.100000000
H     2.742000000     2.703000000    -2.392000000
C     0.978000000     2.513000000    -3.606000000
O     0.487000000     3.711000000    -3.155000000
C    -0.525000000     3.735000000    -2.155000000
H    -0.484000000     2.809000000    -1.563000000
C    -0.227000000     4.771000000    -1.110000000
C    -1.255000000     5.527000000    -0.613000000
H    -2.242000000     5.375000000    -1.044000000
C     1.083000000     4.952000000    -0.570000000
H     1.884000000     4.350000000    -0.992000000
C     1.263000000     5.788000000     0.541000000
O     2.483000000     5.858000000     1.152000000
C     0.229000000     6.593000000     0.955000000
H     0.313000000     7.260000000     1.809000000
C    -1.080000000     6.434000000     0.437000000
O    -2.077000000     7.169000000     0.934000000
C    -3.279000000     6.619000000     1.285000000
C    -3.428000000     5.442000000     1.986000000
H    -2.520000000     4.950000000     2.326000000
C    -4.427000000     7.283000000     0.848000000
H    -4.268000000     8.202000000     0.289000000
C    -5.700000000     6.780000000     1.089000000
H    -6.634000000     7.265000000     0.818000000
C    -5.782000000     5.617000000     1.880000000
H    -6.782000000     5.287000000     2.149000000
C    -4.687000000     4.926000000     2.322000000
O    -4.814000000     3.878000000     3.194000000
C    -4.374000000     2.570000000     2.839000000
C    -3.805000000     1.782000000     3.913000000
H    -3.582000000     2.252000000     4.867000000
C    -3.351000000     0.489000000     3.664000000
O    -2.676000000    -0.225000000     4.544000000
C    -3.037000000    -1.504000000     4.866000000
C    -2.116000000    -2.489000000     4.637000000
H    -1.115000000    -2.220000000     4.309000000
C    -4.362000000    -1.792000000     5.319000000
H    -5.049000000    -0.969000000     5.501000000
C    -4.655000000    -3.122000000     5.591000000
H    -5.589000000    -3.427000000     6.055000000
C    -3.748000000    -4.131000000     5.312000000
H    -4.027000000    -5.148000000     5.578000000
C    -2.477000000    -3.814000000     4.887000000
O    -1.485000000    -4.797000000     4.836000000
C    -0.494000000    -4.796000000     3.894000000
C     0.816000000    -5.076000000     4.221000000
H     1.035000000    -5.180000000     5.281000000
C     1.813000000    -5.132000000     3.245000000
O     3.071000000    -5.177000000     3.754000000
C     4.253000000    -5.052000000     2.990000000
C     4.796000000    -3.790000000     2.727000000
H     4.410000000    -2.942000000     3.287000000
C     4.886000000    -6.164000000     2.555000000
H     4.430000000    -7.130000000     2.756000000
C     6.077000000    -6.067000000     1.843000000
H     6.589000000    -6.961000000     1.496000000
C     6.575000000    -4.766000000     1.554000000
H     7.429000000    -4.602000000     0.902000000
C     5.869000000    -3.619000000     1.945000000
O     6.439000000    -2.381000000     1.842000000
C     5.779000000    -1.325000000     1.247000000
C     5.993000000     0.018000000     1.685000000
H     6.531000000     0.188000000     2.614000000
C     5.512000000     1.130000000     1.032000000
O     5.726000000     2.358000000     1.686000000
C     5.361000000     3.501000000     1.002000000
C     6.018000000     4.016000000    -0.137000000
H     6.860000000     3.398000000    -0.440000000
C     5.528000000     5.160000000    -0.883000000
H     5.982000000     5.450000000    -1.827000000
C     4.345000000     5.763000000    -0.405000000
H     4.006000000     6.648000000    -0.937000000
C     3.640000000     5.190000000     0.645000000
C     4.182000000     4.142000000     1.359000000
H     3.591000000     3.657000000     2.132000000
C    -0.063000000     1.353000000     2.070000000
H    -0.396000000     2.236000000     2.609000000
C    -0.572000000     1.054000000     0.852000000
H    -1.412000000     1.672000000     0.545000000
C     0.016000000     0.045000000     0.092000000
C    -0.468000000    -0.159000000    -1.297000000
H    -1.004000000    -1.102000000    -1.422000000
H    -1.099000000     0.617000000    -1.734000000
H     0.437000000    -0.172000000    -1.907000000
C     0.933000000    -0.834000000     0.660000000
H     1.303000000    -1.649000000     0.043000000
C     1.434000000    -0.633000000     1.918000000
H     2.174000000    -1.307000000     2.341000000
C     0.965000000     0.473000000     2.644000000
C     1.422000000     0.769000000     3.992000000
O     2.425000000     0.212000000     4.392000000
O     0.756000000     1.491000000     4.672000000
O     2.190000000     1.412000000     7.298000000
H     1.777000000     2.271000000     7.208000000
H     2.197000000     1.055000000     6.410000000
O    -0.381000000    -4.620000000     8.215000000
H     0.355000000    -4.573000000     8.826000000
H    -0.366000000    -3.780000000     7.756000000
O     6.082000000    -3.883000000     5.831000000
H     5.554000000    -3.107000000     6.019000000
H     6.954000000    -3.539000000     5.638000000
O    -2.286000000    -0.362000000     7.947000000
H    -2.140000000     0.151000000     8.742000000
H    -3.174000000    -0.131000000     7.673000000
O     4.785000000     1.054000000     4.678000000
H     3.926000000     0.648000000     4.566000000
H     5.161000000     1.066000000     3.798000000
O     4.127000000     5.202000000     6.686000000
H     4.186000000     6.088000000     7.045000000
H     4.179000000     4.629000000     7.451000000
O     0.064000000    -2.063000000     7.354000000
H    -0.826000000    -1.743000000     7.501000000
H     0.558000000    -1.753000000     8.113000000
O     4.755000000    -1.281000000     6.328000000
H     4.178000000    -1.648000000     5.658000000
H     4.673000000    -0.333000000     6.222000000
O     3.370000000    -3.541000000     7.509000000
H     3.421000000    -2.590000000     7.603000000
H     2.624000000    -3.684000000     6.927000000
O    -1.218000000     2.190000000     6.144000000
H    -1.625000000     1.383000000     6.461000000
H    -0.460000000     1.893000000     5.640000000
O     3.385000000     3.848000000     4.358000000
H     3.298000000     4.351000000     5.167000000
H     4.098000000     3.234000000     4.533000000
O     1.846000000    -2.058000000     5.285000000
H     0.958000000    -2.058000000     5.644000000
H     1.951000000    -1.186000000     4.906000000
O     0.910000000     4.026000000     3.641000000
H     0.739000000     3.120000000     3.899000000
H     1.863000000     4.109000000     3.677000000
O     0.207000000     6.008000000     6.780000000
H     0.541000000     6.128000000     5.891000000
H    -0.626000000     6.480000000     6.788000000
O     1.624000000    -0.686000000     9.312000000
H     1.522000000    -0.278000000    10.171000000
H     1.682000000     0.050000000     8.702000000
O     0.842000000     6.711000000     4.311000000
H     1.465000000     7.270000000     3.846000000
H     0.917000000     5.860000000     3.881000000
O    -1.713000000     4.621000000     4.888000000
H    -1.724000000     3.676000000     5.041000000
H    -0.845000000     4.794000000     4.525000000
O     0.371000000     3.676000000     7.895000000
H    -0.388000000     3.279000000     7.469000000
H     0.463000000     4.531000000     7.475000000
O     6.420000000     3.231000000     5.912000000
H     5.970000000     2.469000000     5.547000000
H     5.908000000     3.463000000     6.686000000
