218
-1489.74124
C    -2.762000000    -0.396000000     3.247000000
H    -2.309000000    -1.313000000     2.880000000
C    -3.730000000     0.346000000     2.563000000
C    -4.098000000     1.619000000     3.092000000
H    -4.773000000     2.290000000     2.568000000
C    -3.977000000     0.087000000     1.085000000
O    -4.610000000    -1.143000000     0.940000000
H    -2.999000000     0.065000000     0.583000000
O    -4.700000000     1.134000000     0.476000000
C    -4.355000000     1.671000000    -0.716000000
C    -3.694000000     2.851000000    -0.642000000
H    -3.505000000     3.258000000     0.348000000
C    -2.956000000     3.293000000    -1.769000000
O    -2.097000000     4.318000000    -1.446000000
C    -3.105000000     2.706000000    -3.012000000
C    -2.295000000     3.090000000    -4.281000000
H    -2.881000000     2.610000000    -5.068000000
C    -0.854000000     2.591000000    -4.203000000
C    -0.606000000     1.374000000    -4.871000000
H    -1.307000000     0.899000000    -5.552000000
H    -2.210000000     4.164000000    -4.463000000
C    -3.906000000     1.548000000    -3.058000000
H    -3.994000000     0.913000000    -3.936000000
C    -4.476000000     0.950000000    -1.881000000
C    -5.196000000    -0.416000000    -1.857000000
H    -5.684000000    -0.584000000    -2.819000000
H    -6.014000000    -0.288000000    -1.145000000
C    -4.380000000    -1.587000000    -1.395000000
C    -3.696000000    -2.314000000    -2.448000000
H    -3.787000000    -1.864000000    -3.434000000
C    -4.175000000    -1.996000000    -0.104000000
C    -3.394000000    -3.078000000     0.225000000
H    -3.240000000    -3.374000000     1.260000000
C    -2.708000000    -3.785000000    -0.809000000
O    -1.722000000    -4.716000000    -0.393000000
C    -0.349000000    -4.330000000    -0.487000000
C     0.488000000    -4.931000000     0.682000000
C     1.788000000    -5.403000000     0.452000000
H     2.268000000    -5.438000000    -0.523000000
C     0.030000000    -4.842000000     1.961000000
H    -0.940000000    -4.373000000     2.110000000
O     0.128000000    -4.908000000    -1.760000000
H    -0.276000000    -3.232000000    -0.481000000
C    -2.893000000    -3.424000000    -2.153000000
C    -2.184000000    -4.151000000    -3.325000000
H    -2.799000000    -4.025000000    -4.218000000
H    -2.104000000    -5.230000000    -3.173000000
C    -0.758000000    -3.585000000    -3.556000000
C    -0.516000000    -2.480000000    -4.393000000
H    -1.352000000    -2.169000000    -5.013000000
C     0.314000000    -3.953000000    -2.775000000
C     1.558000000    -3.374000000    -2.794000000
H     2.315000000    -3.676000000    -2.075000000
C     1.763000000    -2.309000000    -3.621000000
O     2.900000000    -1.608000000    -3.553000000
C     2.926000000    -0.415000000    -2.750000000
C     4.131000000    -0.387000000    -1.837000000
C     4.797000000    -1.594000000    -1.404000000
H     4.721000000    -2.502000000    -1.997000000
C     4.377000000     0.802000000    -1.138000000
H     3.919000000     1.736000000    -1.453000000
O     2.860000000     0.758000000    -3.579000000
H     2.087000000    -0.374000000    -2.040000000
C     0.701000000    -1.802000000    -4.413000000
C     0.937000000    -0.643000000    -5.419000000
H     0.183000000    -0.718000000    -6.205000000
H     1.865000000    -0.674000000    -5.994000000
C     0.701000000     0.738000000    -4.771000000
C     1.621000000     1.268000000    -3.862000000
C     1.344000000     2.420000000    -3.181000000
H     2.076000000     2.715000000    -2.434000000
C     0.145000000     3.122000000    -3.349000000
O    -0.063000000     4.214000000    -2.544000000
C    -0.727000000     3.976000000    -1.307000000
H    -0.623000000     2.916000000    -1.031000000
C    -0.145000000     4.807000000    -0.105000000
C    -1.048000000     5.471000000     0.737000000
H    -2.121000000     5.316000000     0.654000000
C     1.234000000     4.886000000     0.094000000
H     1.920000000     4.319000000    -0.530000000
C     1.683000000     5.681000000     1.137000000
O     3.053000000     5.808000000     1.506000000
C     0.769000000     6.287000000     1.967000000
H     1.184000000     6.969000000     2.706000000
C    -0.582000000     6.130000000     1.797000000
O    -1.479000000     6.694000000     2.619000000
C    -2.685000000     6.173000000     3.048000000
C    -2.781000000     4.931000000     3.606000000
H    -1.856000000     4.360000000     3.626000000
C    -3.819000000     6.972000000     3.011000000
H    -3.794000000     7.977000000     2.597000000
C    -5.102000000     6.488000000     3.372000000
H    -6.026000000     7.036000000     3.205000000
C    -5.158000000     5.214000000     3.919000000
H    -6.111000000     4.813000000     4.254000000
C    -3.992000000     4.416000000     4.090000000
O    -4.031000000     3.278000000     4.824000000
C    -3.603000000     2.063000000     4.305000000
C    -2.757000000     1.268000000     5.037000000
H    -2.390000000     1.542000000     6.022000000
C    -2.361000000     0.074000000     4.506000000
O    -1.579000000    -0.757000000     5.247000000
C    -1.668000000    -2.139000000     5.305000000
C    -0.670000000    -2.914000000     4.805000000
H     0.218000000    -2.419000000     4.419000000
C    -2.914000000    -2.783000000     5.583000000
H    -3.731000000    -2.104000000     5.812000000
C    -3.123000000    -4.092000000     5.289000000
H    -4.054000000    -4.627000000     5.461000000
C    -2.061000000    -4.889000000     4.873000000
H    -2.125000000    -5.965000000     4.736000000
C    -0.844000000    -4.313000000     4.684000000
O     0.316000000    -5.014000000     4.349000000
C     0.812000000    -5.213000000     3.075000000
C     2.099000000    -5.683000000     2.843000000
H     2.838000000    -5.929000000     3.601000000
C     2.591000000    -5.759000000     1.544000000
O     3.811000000    -6.257000000     1.334000000
C     4.741000000    -5.772000000     0.447000000
C     5.031000000    -4.413000000     0.348000000
H     4.450000000    -3.666000000     0.882000000
C     5.490000000    -6.677000000    -0.318000000
H     5.271000000    -7.740000000    -0.257000000
C     6.529000000    -6.240000000    -1.087000000
H     7.080000000    -6.995000000    -1.641000000
C     6.903000000    -4.863000000    -0.997000000
H     7.844000000    -4.508000000    -1.410000000
C     6.135000000    -3.920000000    -0.341000000
O     6.548000000    -2.555000000    -0.187000000
C     5.724000000    -1.524000000    -0.372000000
C     5.957000000    -0.387000000     0.334000000
H     6.809000000    -0.307000000     1.004000000
C     5.311000000     0.772000000    -0.115000000
O     5.572000000     1.864000000     0.636000000
C     5.279000000     3.199000000     0.327000000
C     5.624000000     3.751000000    -0.860000000
H     6.387000000     3.226000000    -1.429000000
C     5.269000000     4.996000000    -1.305000000
H     5.713000000     5.415000000    -2.204000000
C     4.454000000     5.786000000    -0.441000000
H     4.121000000     6.798000000    -0.661000000
C     4.044000000     5.178000000     0.743000000
C     4.435000000     3.929000000     1.190000000
H     4.134000000     3.527000000     2.154000000
C     0.317000000     1.055000000     2.383000000
H    -0.057000000     1.808000000     3.072000000
C    -0.428000000     0.860000000     1.194000000
H    -1.279000000     1.503000000     0.983000000
C     0.059000000    -0.053000000     0.243000000
C    -0.664000000    -0.232000000    -1.030000000
H    -0.054000000    -0.901000000    -1.641000000
H    -1.622000000    -0.704000000    -0.801000000
H    -0.893000000     0.660000000    -1.617000000
C     1.192000000    -0.788000000     0.468000000
H     1.537000000    -1.493000000    -0.284000000
C     1.879000000    -0.634000000     1.689000000
H     2.709000000    -1.331000000     1.772000000
C     1.491000000     0.280000000     2.646000000
C     2.247000000     0.322000000     3.929000000
O     3.010000000    -0.617000000     4.257000000
O     2.164000000     1.346000000     4.592000000
O     2.625000000    -4.836000000     6.260000000
H     1.774000000    -5.123000000     6.592000000
H     3.123000000    -5.646000000     6.147000000
O     0.839000000     1.372000000     6.951000000
H     1.652000000     1.437000000     7.452000000
H     1.117000000     1.103000000     6.076000000
O     1.689000000    -1.049000000    10.347000000
H     2.629000000    -1.195000000    10.246000000
H     1.348000000    -1.052000000     9.452000000
O    -0.065000000    -1.386000000     7.697000000
H     0.755000000    -1.353000000     7.204000000
H    -0.460000000    -0.525000000     7.562000000
O    -2.887000000    -0.812000000     8.076000000
H    -2.222000000    -0.874000000     7.391000000
H    -3.460000000    -0.101000000     7.789000000
O     2.359000000     6.455000000     5.565000000
H     1.566000000     6.830000000     5.183000000
H     2.207000000     5.510000000     5.554000000
O     3.946000000    -3.120000000     3.881000000
H     3.372000000    -2.354000000     3.892000000
H     3.775000000    -3.559000000     4.715000000
O     3.458000000     1.286000000     7.950000000
H     4.088000000     0.935000000     7.320000000
H     3.856000000     1.120000000     8.805000000
O     6.343000000    -1.548000000     3.681000000
H     5.600000000    -2.145000000     3.594000000
H     6.106000000    -0.791000000     3.146000000
O     1.276000000     4.092000000     4.555000000
H     1.549000000     3.197000000     4.761000000
H     1.769000000     4.316000000     3.765000000
O     3.981000000     4.150000000     7.621000000
H     3.773000000     3.234000000     7.809000000
H     3.956000000     4.581000000     8.475000000
O     2.334000000    -1.753000000     6.430000000
H     2.606000000    -2.665000000     6.323000000
H     2.413000000    -1.376000000     5.554000000
O    -1.059000000     2.654000000     8.219000000
H    -0.395000000     2.259000000     7.654000000
H    -0.565000000     3.005000000     8.960000000
O     6.117000000     5.205000000     5.998000000
H     6.220000000     4.913000000     5.092000000
H     5.191000000     5.056000000     6.194000000
O     4.061000000     3.135000000     5.065000000
H     4.008000000     3.440000000     5.971000000
H     3.425000000     2.421000000     5.015000000
O    -0.599000000     4.917000000     6.467000000
H     0.161000000     4.648000000     5.951000000
H    -0.954000000     4.098000000     6.814000000
O     5.171000000     0.409000000     6.109000000
H     5.650000000    -0.401000000     6.284000000
H     4.583000000     0.189000000     5.387000000
O     4.872000000    -2.141000000     7.115000000
H     3.935000000    -1.966000000     7.201000000
H     4.946000000    -3.092000000     7.191000000
O     7.202000000     2.337000000     4.806000000
H     7.448000000     2.079000000     5.695000000
H     6.267000000     2.138000000     4.749000000
