218
-1454.83847
C    -2.615000000    -2.019000000     3.299000000
H    -1.972000000    -2.836000000     2.981000000
C    -3.570000000    -1.421000000     2.429000000
C    -4.350000000    -0.386000000     2.921000000
H    -4.967000000     0.195000000     2.240000000
C    -3.637000000    -1.802000000     0.926000000
O    -3.470000000    -3.189000000     0.790000000
H    -2.727000000    -1.318000000     0.542000000
O    -4.848000000    -1.338000000     0.194000000
C    -4.713000000    -0.603000000    -0.900000000
C    -4.617000000     0.770000000    -0.824000000
H    -4.875000000     1.202000000     0.139000000
C    -4.127000000     1.473000000    -1.917000000
O    -3.829000000     2.784000000    -1.720000000
C    -3.751000000     0.799000000    -3.137000000
C    -3.116000000     1.554000000    -4.340000000
H    -3.320000000     1.018000000    -5.270000000
C    -1.638000000     1.821000000    -4.149000000
C    -0.778000000     0.811000000    -4.582000000
H    -1.194000000    -0.128000000    -4.937000000
H    -3.634000000     2.512000000    -4.418000000
C    -4.005000000    -0.568000000    -3.205000000
H    -3.735000000    -1.179000000    -4.063000000
C    -4.413000000    -1.262000000    -2.128000000
C    -4.292000000    -2.795000000    -2.032000000
H    -4.567000000    -3.188000000    -3.013000000
H    -5.039000000    -3.195000000    -1.343000000
C    -3.016000000    -3.507000000    -1.634000000
C    -2.059000000    -3.871000000    -2.576000000
H    -2.120000000    -3.654000000    -3.640000000
C    -2.728000000    -3.727000000    -0.274000000
C    -1.503000000    -4.371000000     0.064000000
H    -1.295000000    -4.504000000     1.123000000
C    -0.589000000    -4.781000000    -0.813000000
O     0.690000000    -5.137000000    -0.365000000
C     1.604000000    -4.048000000    -0.229000000
C     2.531000000    -4.282000000     0.958000000
C     3.897000000    -4.058000000     0.904000000
H     4.385000000    -3.761000000    -0.021000000
C     1.957000000    -4.698000000     2.138000000
H     0.882000000    -4.827000000     2.230000000
O     2.383000000    -4.073000000    -1.440000000
H     1.075000000    -3.102000000    -0.040000000
C    -0.837000000    -4.513000000    -2.187000000
C     0.263000000    -4.651000000    -3.186000000
H    -0.092000000    -5.018000000    -4.150000000
H     1.004000000    -5.396000000    -2.887000000
C     1.067000000    -3.357000000    -3.340000000
C     0.878000000    -2.400000000    -4.349000000
H     0.124000000    -2.600000000    -5.105000000
C     2.173000000    -3.225000000    -2.506000000
C     3.003000000    -2.140000000    -2.508000000
H     3.851000000    -2.187000000    -1.830000000
C     2.764000000    -1.098000000    -3.420000000
O     3.550000000     0.010000000    -3.309000000
C     2.882000000     1.100000000    -2.662000000
C     3.651000000     1.651000000    -1.511000000
C     4.713000000     0.998000000    -0.925000000
H     4.961000000     0.017000000    -1.323000000
C     3.369000000     2.965000000    -1.104000000
H     2.512000000     3.535000000    -1.454000000
O     2.494000000     2.068000000    -3.590000000
H     1.961000000     0.678000000    -2.232000000
C     1.674000000    -1.219000000    -4.318000000
C     1.387000000    -0.109000000    -5.269000000
H     0.839000000    -0.468000000    -6.143000000
H     2.335000000     0.283000000    -5.645000000
C     0.561000000     0.958000000    -4.624000000
C     1.140000000     2.016000000    -3.912000000
C     0.298000000     2.906000000    -3.316000000
H     0.740000000     3.663000000    -2.673000000
C    -1.070000000     2.958000000    -3.534000000
O    -1.894000000     3.691000000    -2.731000000
C    -2.447000000     3.294000000    -1.498000000
H    -1.785000000     2.489000000    -1.148000000
C    -2.377000000     4.314000000    -0.438000000
C    -2.951000000     4.122000000     0.839000000
H    -3.648000000     3.306000000     1.016000000
C    -1.637000000     5.470000000    -0.658000000
H    -1.180000000     5.701000000    -1.617000000
C    -1.331000000     6.364000000     0.340000000
O    -0.418000000     7.382000000     0.167000000
C    -1.895000000     6.198000000     1.570000000
H    -1.831000000     7.025000000     2.273000000
C    -2.668000000     5.048000000     1.796000000
O    -3.150000000     4.883000000     3.065000000
C    -4.309000000     4.153000000     3.307000000
C    -4.102000000     2.880000000     3.845000000
H    -3.146000000     2.563000000     4.252000000
C    -5.597000000     4.585000000     2.877000000
H    -5.827000000     5.561000000     2.456000000
C    -6.664000000     3.680000000     2.987000000
H    -7.621000000     3.958000000     2.552000000
C    -6.469000000     2.382000000     3.410000000
H    -7.245000000     1.622000000     3.383000000
C    -5.195000000     2.078000000     3.978000000
O    -5.056000000     0.955000000     4.763000000
C    -4.237000000     0.030000000     4.276000000
C    -3.386000000    -0.676000000     5.118000000
H    -3.337000000    -0.413000000     6.172000000
C    -2.502000000    -1.628000000     4.625000000
O    -1.531000000    -2.194000000     5.460000000
C    -0.937000000    -3.426000000     5.149000000
C     0.439000000    -3.623000000     5.005000000
H     1.173000000    -2.822000000     4.959000000
C    -1.791000000    -4.537000000     5.064000000
H    -2.855000000    -4.331000000     5.150000000
C    -1.265000000    -5.879000000     4.881000000
H    -2.014000000    -6.664000000     4.822000000
C     0.081000000    -6.020000000     4.737000000
H     0.516000000    -7.012000000     4.646000000
C     0.924000000    -4.933000000     4.891000000
O     2.282000000    -5.056000000     4.564000000
C     2.762000000    -4.750000000     3.285000000
C     4.168000000    -4.464000000     3.260000000
H     4.790000000    -4.607000000     4.140000000
C     4.714000000    -4.134000000     2.020000000
O     6.025000000    -3.811000000     1.885000000
C     6.506000000    -2.804000000     1.020000000
C     6.272000000    -1.444000000     1.272000000
H     5.554000000    -1.297000000     2.074000000
C     7.176000000    -3.162000000    -0.167000000
H     7.371000000    -4.222000000    -0.310000000
C     7.745000000    -2.214000000    -1.016000000
H     8.312000000    -2.539000000    -1.885000000
C     7.563000000    -0.876000000    -0.710000000
H     8.078000000    -0.172000000    -1.359000000
C     6.717000000    -0.486000000     0.415000000
O     6.426000000     0.834000000     0.791000000
C     5.426000000     1.548000000     0.168000000
C     5.083000000     2.827000000     0.621000000
H     5.640000000     3.318000000     1.415000000
C     4.074000000     3.530000000    -0.037000000
O     3.633000000     4.726000000     0.556000000
C     2.978000000     5.783000000    -0.026000000
C     3.647000000     6.742000000    -0.750000000
H     4.717000000     6.550000000    -0.787000000
C     3.015000000     7.847000000    -1.227000000
H     3.575000000     8.641000000    -1.713000000
C     1.684000000     8.095000000    -0.924000000
H     1.093000000     8.918000000    -1.319000000
C     0.933000000     7.138000000    -0.181000000
C     1.608000000     5.972000000     0.293000000
H     1.142000000     5.269000000     0.979000000
C     0.101000000     0.975000000     2.817000000
H    -0.435000000     1.645000000     3.484000000
C    -0.496000000     0.795000000     1.534000000
H    -1.383000000     1.324000000     1.195000000
C     0.204000000    -0.040000000     0.659000000
C    -0.273000000    -0.267000000    -0.729000000
H    -0.034000000     0.619000000    -1.320000000
H     0.170000000    -1.191000000    -1.109000000
H    -1.360000000    -0.367000000    -0.726000000
C     1.389000000    -0.644000000     1.074000000
H     1.960000000    -1.320000000     0.443000000
C     1.914000000    -0.482000000     2.305000000
H     2.799000000    -1.043000000     2.596000000
C     1.302000000     0.368000000     3.235000000
C     1.796000000     0.490000000     4.705000000
O     2.857000000    -0.041000000     5.041000000
O     1.064000000     0.887000000     5.535000000
O     2.139000000     3.797000000     9.333000000
H     3.089000000     3.830000000     9.448000000
H     2.017000000     3.472000000     8.441000000
O     4.431000000    -3.805000000     7.037000000
H     4.506000000    -2.917000000     6.687000000
H     3.489000000    -3.958000000     7.101000000
O    -0.908000000     0.268000000     7.116000000
H    -0.216000000     0.345000000     6.460000000
H    -1.201000000    -0.641000000     7.050000000
O    -1.502000000    -2.124000000     8.357000000
H    -0.720000000    -2.664000000     8.246000000
H    -2.220000000    -2.753000000     8.430000000
O     6.975000000     1.827000000     6.933000000
H     6.481000000     1.544000000     6.163000000
H     6.620000000     1.304000000     7.651000000
O     4.099000000    -0.373000000    10.750000000
H     3.667000000    -0.065000000     9.954000000
H     3.443000000    -0.261000000    11.438000000
O     5.186000000    -1.477000000     5.238000000
H     4.314000000    -1.110000000     5.094000000
H     5.751000000    -0.998000000     4.631000000
O     4.881000000     1.980000000     4.811000000
H     5.368000000     1.808000000     4.005000000
H     4.204000000     1.303000000     4.830000000
O     0.024000000     2.431000000    10.990000000
H    -0.366000000     1.832000000    10.353000000
H     0.678000000     2.919000000    10.489000000
O     3.427000000     5.995000000     3.076000000
H     2.731000000     6.167000000     3.711000000
H     2.987000000     5.543000000     2.356000000
O    -0.584000000     2.634000000     8.280000000
H    -0.578000000     1.705000000     8.048000000
H     0.124000000     3.015000000     7.760000000
O    -0.466000000     6.123000000     6.508000000
H     0.462000000     6.114000000     6.744000000
H    -0.903000000     6.507000000     7.268000000
O     7.425000000     1.217000000     3.622000000
H     7.840000000     1.576000000     2.838000000
H     8.140000000     1.125000000     4.252000000
O     2.308000000    -2.023000000     7.152000000
H     2.865000000    -1.474000000     7.705000000
H     1.909000000    -1.411000000     6.533000000
O     2.630000000     0.745000000     8.223000000
H     1.811000000     0.501000000     8.654000000
H     2.403000000     0.811000000     7.295000000
O     0.431000000    -0.258000000     9.710000000
H     0.015000000    -0.728000000    10.432000000
H    -0.066000000    -0.522000000     8.935000000
O     0.696000000    -3.962000000     8.205000000
H     1.155000000    -3.592000000     7.451000000
H     1.099000000    -3.538000000     8.963000000
O     1.722000000     3.289000000     6.472000000
H     1.345000000     2.497000000     6.089000000
H     2.438000000     3.523000000     5.881000000
O     5.493000000     4.476000000     5.912000000
H     6.406000000     4.482000000     6.199000000
H     5.410000000     3.674000000     5.396000000
