218
-1458.17298
C    -2.489000000    -2.519000000     3.283000000
H    -1.888000000    -3.234000000     2.727000000
C    -3.447000000    -1.883000000     2.543000000
C    -4.244000000    -0.906000000     3.246000000
H    -5.050000000    -0.420000000     2.703000000
C    -3.602000000    -2.096000000     1.039000000
O    -3.624000000    -3.414000000     0.686000000
H    -2.785000000    -1.624000000     0.473000000
O    -4.793000000    -1.445000000     0.448000000
C    -4.493000000    -0.750000000    -0.725000000
C    -4.391000000     0.595000000    -0.561000000
H    -4.575000000     1.108000000     0.379000000
C    -4.084000000     1.345000000    -1.699000000
O    -4.045000000     2.661000000    -1.386000000
C    -3.853000000     0.815000000    -2.935000000
C    -3.494000000     1.661000000    -4.152000000
H    -3.732000000     1.209000000    -5.117000000
C    -1.989000000     1.951000000    -4.078000000
C    -1.180000000     1.137000000    -4.860000000
H    -1.552000000     0.243000000    -5.354000000
H    -3.950000000     2.653000000    -4.122000000
C    -3.822000000    -0.582000000    -3.078000000
H    -3.534000000    -1.038000000    -4.022000000
C    -4.310000000    -1.383000000    -2.007000000
C    -4.310000000    -2.878000000    -2.099000000
H    -4.622000000    -3.215000000    -3.090000000
H    -5.139000000    -3.322000000    -1.544000000
C    -3.052000000    -3.574000000    -1.630000000
C    -2.043000000    -3.863000000    -2.570000000
H    -2.372000000    -3.597000000    -3.571000000
C    -2.771000000    -3.798000000    -0.299000000
C    -1.482000000    -4.224000000     0.035000000
H    -1.161000000    -4.209000000     1.074000000
C    -0.463000000    -4.439000000    -0.906000000
O     0.798000000    -4.643000000    -0.337000000
C     1.765000000    -3.602000000    -0.339000000
C     2.713000000    -3.727000000     0.887000000
C     4.017000000    -3.307000000     0.723000000
H     4.371000000    -2.921000000    -0.230000000
C     2.357000000    -4.279000000     2.104000000
H     1.398000000    -4.770000000     2.249000000
O     2.405000000    -3.715000000    -1.637000000
H     1.240000000    -2.656000000    -0.144000000
C    -0.747000000    -4.217000000    -2.224000000
C     0.304000000    -4.319000000    -3.302000000
H    -0.178000000    -4.437000000    -4.274000000
H     0.873000000    -5.246000000    -3.206000000
C     1.089000000    -3.073000000    -3.439000000
C     0.687000000    -2.067000000    -4.336000000
H    -0.170000000    -2.263000000    -4.975000000
C     2.147000000    -2.830000000    -2.597000000
C     2.919000000    -1.697000000    -2.701000000
H     3.786000000    -1.578000000    -2.056000000
C     2.600000000    -0.796000000    -3.697000000
O     3.266000000     0.389000000    -3.715000000
C     2.749000000     1.424000000    -2.898000000
C     3.731000000     2.055000000    -1.912000000
C     4.971000000     1.451000000    -1.593000000
H     5.368000000     0.636000000    -2.193000000
C     3.235000000     3.102000000    -1.117000000
H     2.262000000     3.543000000    -1.316000000
O     2.163000000     2.415000000    -3.742000000
H     1.970000000     0.992000000    -2.252000000
C     1.490000000    -0.964000000    -4.448000000
C     1.042000000     0.137000000    -5.426000000
H     0.588000000    -0.377000000    -6.276000000
H     1.992000000     0.561000000    -5.758000000
C     0.192000000     1.245000000    -4.707000000
C     0.797000000     2.320000000    -3.956000000
C    -0.062000000     3.179000000    -3.261000000
H     0.443000000     3.940000000    -2.671000000
C    -1.460000000     2.976000000    -3.263000000
O    -2.330000000     3.729000000    -2.584000000
C    -2.730000000     3.268000000    -1.306000000
H    -2.012000000     2.496000000    -0.991000000
C    -2.582000000     4.271000000    -0.160000000
C    -3.428000000     4.069000000     0.944000000
H    -4.239000000     3.346000000     0.946000000
C    -1.512000000     5.160000000    -0.177000000
H    -0.807000000     5.231000000    -1.002000000
C    -1.391000000     6.000000000     1.004000000
O    -0.341000000     6.843000000     1.073000000
C    -2.226000000     5.893000000     2.106000000
H    -2.098000000     6.550000000     2.962000000
C    -3.174000000     4.880000000     2.053000000
O    -3.958000000     4.709000000     3.202000000
C    -4.876000000     3.698000000     3.429000000
C    -4.380000000     2.582000000     4.065000000
H    -3.340000000     2.556000000     4.378000000
C    -6.215000000     3.842000000     3.058000000
H    -6.563000000     4.749000000     2.571000000
C    -7.116000000     2.864000000     3.345000000
H    -8.173000000     3.014000000     3.140000000
C    -6.699000000     1.762000000     4.151000000
H    -7.434000000     0.995000000     4.384000000
C    -5.332000000     1.614000000     4.464000000
O    -4.827000000     0.534000000     5.166000000
C    -4.017000000    -0.522000000     4.575000000
C    -2.931000000    -1.087000000     5.207000000
H    -2.734000000    -0.769000000     6.227000000
C    -2.171000000    -2.115000000     4.631000000
O    -0.975000000    -2.477000000     5.283000000
C    -0.375000000    -3.734000000     5.063000000
C     1.027000000    -3.884000000     4.953000000
H     1.666000000    -3.010000000     5.047000000
C    -1.083000000    -4.918000000     5.101000000
H    -2.155000000    -4.901000000     5.279000000
C    -0.491000000    -6.185000000     4.791000000
H    -1.122000000    -7.067000000     4.712000000
C     0.861000000    -6.256000000     4.550000000
H     1.398000000    -7.173000000     4.320000000
C     1.628000000    -5.101000000     4.764000000
O     2.967000000    -4.996000000     4.359000000
C     3.268000000    -4.459000000     3.134000000
C     4.594000000    -4.133000000     2.955000000
H     5.383000000    -4.356000000     3.669000000
C     4.882000000    -3.457000000     1.782000000
O     6.189000000    -3.169000000     1.507000000
C     6.719000000    -2.247000000     0.635000000
C     6.475000000    -0.868000000     0.780000000
H     5.987000000    -0.431000000     1.648000000
C     7.488000000    -2.739000000    -0.435000000
H     7.605000000    -3.819000000    -0.402000000
C     8.090000000    -1.870000000    -1.343000000
H     8.869000000    -2.208000000    -2.022000000
C     7.852000000    -0.484000000    -1.149000000
H     8.498000000     0.226000000    -1.658000000
C     6.987000000    -0.032000000    -0.183000000
O     6.838000000     1.400000000    -0.117000000
C     5.692000000     1.928000000    -0.506000000
C     5.231000000     3.028000000     0.245000000
H     5.766000000     3.332000000     1.141000000
C     4.024000000     3.583000000    -0.081000000
O     3.613000000     4.631000000     0.677000000
C     2.805000000     5.577000000     0.255000000
C     3.099000000     6.257000000    -0.918000000
H     3.974000000     5.892000000    -1.450000000
C     2.125000000     7.127000000    -1.456000000
H     2.321000000     7.630000000    -2.399000000
C     0.999000000     7.382000000    -0.686000000
H     0.222000000     8.088000000    -0.967000000
C     0.808000000     6.757000000     0.485000000
C     1.691000000     5.795000000     0.993000000
H     1.474000000     5.268000000     1.920000000
C    -0.738000000     1.026000000     2.296000000
H    -1.422000000     1.396000000     3.055000000
C    -1.208000000     0.653000000     1.066000000
H    -2.261000000     0.865000000     0.899000000
C    -0.324000000     0.155000000     0.053000000
C    -0.915000000    -0.345000000    -1.289000000
H    -1.725000000    -1.078000000    -1.311000000
H    -1.283000000     0.467000000    -1.919000000
H    -0.131000000    -0.745000000    -1.934000000
C     0.986000000     0.108000000     0.328000000
H     1.720000000    -0.257000000    -0.385000000
C     1.392000000     0.368000000     1.663000000
H     2.457000000     0.349000000     1.881000000
C     0.576000000     0.891000000     2.638000000
C     1.122000000     1.229000000     4.007000000
O     2.208000000     0.887000000     4.337000000
O     0.561000000     2.032000000     4.716000000
O     1.686000000     3.811000000     6.911000000
H     2.005000000     2.980000000     6.557000000
H     2.397000000     4.120000000     7.473000000
O     2.770000000     1.623000000     9.752000000
H     2.254000000     1.349000000     8.994000000
H     2.120000000     1.824000000    10.425000000
O     5.567000000     1.557000000     4.428000000
H     5.330000000     0.630000000     4.393000000
H     4.741000000     2.010000000     4.598000000
O    -0.841000000     1.892000000     6.954000000
H    -0.159000000     1.675000000     6.319000000
H    -0.679000000     1.302000000     7.690000000
O    -2.572000000    -1.822000000     8.593000000
H    -1.638000000    -1.731000000     8.401000000
H    -2.830000000    -2.629000000     8.147000000
O     4.713000000     3.892000000     6.574000000
H     4.379000000     3.752000000     5.688000000
H     5.662000000     3.796000000     6.491000000
O     3.552000000     5.001000000     8.689000000
H     3.681000000     5.921000000     8.459000000
H     4.216000000     4.533000000     8.183000000
O     4.202000000    -0.794000000     4.530000000
H     3.483000000    -0.184000000     4.366000000
H     4.135000000    -1.439000000     3.826000000
O     3.415000000     3.322000000     4.242000000
H     2.865000000     4.098000000     4.138000000
H     2.797000000     2.610000000     4.409000000
O     7.568000000     3.502000000     2.805000000
H     7.084000000     4.308000000     2.986000000
H     7.107000000     2.828000000     3.305000000
O    -0.411000000     4.433000000     5.148000000
H     0.012000000     4.183000000     5.970000000
H    -0.310000000     3.666000000     4.584000000
O    -3.434000000     2.685000000     7.464000000
H    -3.849000000     1.825000000     7.535000000
H    -2.562000000     2.502000000     7.116000000
O     1.646000000     6.079000000     4.802000000
H     1.003000000     5.378000000     4.694000000
H     2.017000000     5.931000000     5.672000000
O     4.416000000    -1.595000000     7.528000000
H     4.648000000    -1.844000000     6.634000000
H     4.782000000    -0.717000000     7.636000000
O     0.120000000    -0.881000000     8.197000000
H     0.932000000    -0.585000000     7.786000000
H     0.350000000    -1.716000000     8.606000000
O     0.601000000     4.269000000     9.668000000
H     1.353000000     4.808000000     9.422000000
H    -0.123000000     4.615000000     9.147000000
O     5.604000000     0.717000000     7.950000000
H     5.050000000     1.425000000     7.623000000
H     6.484000000     0.942000000     7.649000000
O     2.137000000     0.188000000     6.887000000
H     2.166000000     0.532000000     5.994000000
H     2.868000000    -0.429000000     6.930000000
O    -2.740000000     5.322000000     6.172000000
H    -1.980000000     5.062000000     5.650000000
H    -3.147000000     4.495000000     6.431000000
