218
-1467.96178
C    -2.137000000    -2.959000000     2.720000000
H    -1.328000000    -3.216000000     2.042000000
C    -3.316000000    -2.494000000     2.173000000
C    -4.345000000    -1.956000000     2.959000000
H    -5.282000000    -1.597000000     2.541000000
C    -3.435000000    -2.365000000     0.702000000
O    -3.279000000    -3.649000000     0.018000000
H    -2.581000000    -1.786000000     0.320000000
O    -4.703000000    -1.744000000     0.217000000
C    -4.685000000    -0.728000000    -0.704000000
C    -4.485000000     0.606000000    -0.243000000
H    -4.684000000     0.760000000     0.814000000
C    -4.284000000     1.625000000    -1.161000000
O    -4.055000000     2.900000000    -0.721000000
C    -4.062000000     1.366000000    -2.526000000
C    -3.690000000     2.401000000    -3.491000000
H    -4.096000000     2.061000000    -4.446000000
C    -2.183000000     2.605000000    -3.505000000
C    -1.390000000     1.923000000    -4.474000000
H    -1.944000000     1.428000000    -5.268000000
H    -4.192000000     3.357000000    -3.325000000
C    -4.039000000    -0.027000000    -2.911000000
H    -3.965000000    -0.207000000    -3.980000000
C    -4.339000000    -1.069000000    -2.046000000
C    -4.254000000    -2.485000000    -2.532000000
H    -4.474000000    -2.538000000    -3.600000000
H    -4.971000000    -3.068000000    -1.950000000
C    -2.887000000    -3.062000000    -2.303000000
C    -1.912000000    -3.028000000    -3.297000000
H    -2.027000000    -2.362000000    -4.149000000
C    -2.523000000    -3.688000000    -1.100000000
C    -1.269000000    -4.214000000    -0.906000000
H    -0.965000000    -4.663000000     0.036000000
C    -0.338000000    -4.316000000    -1.916000000
O     0.980000000    -4.654000000    -1.579000000
C     1.993000000    -3.600000000    -1.360000000
C     2.905000000    -3.926000000    -0.240000000
C     4.117000000    -3.278000000    -0.179000000
H     4.475000000    -2.551000000    -0.904000000
C     2.481000000    -4.824000000     0.787000000
H     1.448000000    -5.165000000     0.773000000
O     2.732000000    -3.388000000    -2.571000000
H     1.562000000    -2.634000000    -1.058000000
C    -0.645000000    -3.692000000    -3.142000000
C     0.371000000    -3.652000000    -4.255000000
H    -0.260000000    -3.524000000    -5.137000000
H     0.926000000    -4.574000000    -4.437000000
C     1.150000000    -2.371000000    -4.159000000
C     0.699000000    -1.238000000    -4.874000000
H    -0.256000000    -1.162000000    -5.386000000
C     2.378000000    -2.372000000    -3.460000000
C     3.205000000    -1.268000000    -3.485000000
H     4.172000000    -1.272000000    -2.987000000
C     2.710000000    -0.124000000    -4.060000000
O     3.335000000     1.049000000    -3.756000000
C     2.726000000     1.898000000    -2.724000000
C     3.761000000     2.370000000    -1.646000000
C     5.017000000     1.890000000    -1.456000000
H     5.479000000     1.225000000    -2.181000000
C     3.282000000     3.333000000    -0.697000000
H     2.274000000     3.717000000    -0.832000000
O     1.998000000     2.931000000    -3.384000000
H     1.983000000     1.294000000    -2.183000000
C     1.485000000    -0.117000000    -4.759000000
C     0.944000000     1.127000000    -5.352000000
H     0.314000000     0.971000000    -6.231000000
H     1.738000000     1.794000000    -5.694000000
C     0.028000000     1.958000000    -4.413000000
C     0.613000000     2.784000000    -3.460000000
C    -0.162000000     3.530000000    -2.617000000
H     0.341000000     4.106000000    -1.844000000
C    -1.528000000     3.428000000    -2.598000000
O    -2.169000000     4.010000000    -1.532000000
C    -2.711000000     3.222000000    -0.451000000
H    -2.139000000     2.283000000    -0.489000000
C    -2.542000000     3.904000000     0.910000000
C    -3.291000000     3.438000000     1.944000000
H    -3.877000000     2.523000000     1.920000000
C    -1.579000000     4.898000000     1.041000000
H    -1.107000000     5.301000000     0.149000000
C    -1.472000000     5.552000000     2.252000000
O    -0.633000000     6.561000000     2.361000000
C    -2.174000000     5.004000000     3.349000000
H    -1.961000000     5.374000000     4.349000000
C    -3.098000000     4.004000000     3.226000000
O    -3.630000000     3.356000000     4.363000000
C    -4.656000000     2.471000000     4.357000000
C    -4.380000000     1.189000000     4.732000000
H    -3.398000000     0.754000000     4.898000000
C    -5.967000000     2.888000000     4.118000000
H    -6.205000000     3.920000000     3.876000000
C    -7.039000000     1.984000000     4.298000000
H    -8.080000000     2.279000000     4.191000000
C    -6.762000000     0.649000000     4.689000000
H    -7.536000000    -0.114000000     4.687000000
C    -5.406000000     0.251000000     4.921000000
O    -5.149000000    -1.112000000     5.044000000
C    -4.199000000    -1.825000000     4.345000000
C    -3.003000000    -2.195000000     4.957000000
H    -2.792000000    -1.988000000     6.003000000
C    -2.006000000    -2.771000000     4.111000000
O    -0.816000000    -3.144000000     4.656000000
C    -0.259000000    -4.383000000     4.503000000
C     0.799000000    -4.493000000     3.674000000
H     1.265000000    -3.628000000     3.209000000
C    -0.783000000    -5.482000000     5.236000000
H    -1.652000000    -5.407000000     5.885000000
C    -0.170000000    -6.738000000     4.993000000
H    -0.549000000    -7.562000000     5.593000000
C     0.884000000    -6.898000000     4.102000000
H     1.402000000    -7.836000000     3.919000000
C     1.447000000    -5.714000000     3.546000000
O     2.669000000    -5.725000000     2.975000000
C     3.160000000    -4.911000000     1.917000000
C     4.419000000    -4.259000000     1.971000000
H     5.035000000    -4.378000000     2.859000000
C     4.896000000    -3.428000000     0.983000000
O     6.092000000    -2.756000000     1.163000000
C     6.687000000    -1.939000000     0.270000000
C     6.492000000    -0.576000000     0.325000000
H     5.910000000    -0.082000000     1.100000000
C     7.522000000    -2.472000000    -0.708000000
H     7.515000000    -3.543000000    -0.893000000
C     8.172000000    -1.616000000    -1.565000000
H     8.884000000    -2.022000000    -2.280000000
C     8.030000000    -0.252000000    -1.453000000
H     8.740000000     0.330000000    -2.035000000
C     7.197000000     0.310000000    -0.476000000
O     7.022000000     1.653000000    -0.305000000
C     5.784000000     2.334000000    -0.428000000
C     5.390000000     3.371000000     0.457000000
H     6.016000000     3.824000000     1.221000000
C     4.132000000     3.891000000     0.308000000
O     3.687000000     5.019000000     1.088000000
C     2.663000000     5.900000000     0.877000000
C     2.599000000     6.798000000    -0.258000000
H     3.453000000     6.898000000    -0.923000000
C     1.479000000     7.605000000    -0.400000000
H     1.367000000     8.279000000    -1.245000000
C     0.527000000     7.637000000     0.589000000
H    -0.370000000     8.251000000     0.574000000
C     0.491000000     6.653000000     1.566000000
C     1.528000000     5.776000000     1.744000000
H     1.508000000     5.064000000     2.566000000
C    -0.073000000     0.007000000     2.334000000
H    -0.730000000     0.239000000     3.169000000
C    -0.556000000    -0.026000000     1.032000000
H    -1.603000000     0.101000000     0.770000000
C     0.373000000    -0.273000000     0.021000000
C    -0.145000000    -0.471000000    -1.364000000
H    -0.206000000     0.399000000    -2.021000000
H     0.394000000    -1.266000000    -1.883000000
H    -1.163000000    -0.836000000    -1.217000000
C     1.747000000    -0.430000000     0.318000000
H     2.546000000    -0.590000000    -0.401000000
C     2.208000000    -0.420000000     1.655000000
H     3.262000000    -0.530000000     1.899000000
C     1.280000000    -0.170000000     2.675000000
C     1.722000000    -0.096000000     4.090000000
O     2.896000000    -0.479000000     4.340000000
O     0.902000000     0.242000000     4.896000000
O     2.157000000     1.457000000     6.921000000
H     1.659000000     1.151000000     6.163000000
H     2.628000000     0.682000000     7.227000000
O    -3.492000000     3.266000000     7.526000000
H    -3.031000000     3.110000000     6.701000000
H    -4.130000000     2.555000000     7.582000000
O    -1.251000000     1.037000000     6.142000000
H    -0.774000000     1.305000000     6.928000000
H    -0.642000000     0.466000000     5.675000000
O     4.321000000     0.670000000     9.602000000
H     5.110000000     0.515000000     9.083000000
H     3.948000000    -0.202000000     9.737000000
O     5.170000000    -1.839000000     4.188000000
H     4.399000000    -1.283000000     4.076000000
H     5.789000000    -1.526000000     3.529000000
O     4.378000000     1.628000000     4.073000000
H     3.920000000     2.425000000     4.337000000
H     3.736000000     0.929000000     4.202000000
O     4.082000000    -3.142000000     8.018000000
H     3.341000000    -3.580000000     7.599000000
H     4.279000000    -2.402000000     7.444000000
O     7.101000000     2.081000000     3.698000000
H     6.222000000     1.702000000     3.697000000
H     7.118000000     2.645000000     4.471000000
O     0.457000000     4.385000000     5.115000000
H    -0.092000000     3.893000000     4.504000000
H     1.296000000     3.924000000     5.108000000
O    -3.137000000     0.457000000     8.185000000
H    -2.858000000     0.548000000     9.096000000
H    -2.336000000     0.577000000     7.675000000
O     3.256000000     4.280000000     5.033000000
H     3.408000000     5.174000000     4.725000000
H     3.878000000     4.166000000     5.752000000
O     6.968000000    -3.817000000     4.828000000
H     6.458000000    -3.008000000     4.873000000
H     6.381000000    -4.490000000     5.172000000
O     3.142000000    -3.012000000     5.537000000
H     4.070000000    -2.892000000     5.333000000
H     2.695000000    -2.338000000     5.025000000
O     0.067000000     1.977000000     8.536000000
H     0.944000000     1.988000000     8.151000000
H     0.119000000     1.320000000     9.230000000
O     4.232000000     3.426000000     7.485000000
H     3.724000000     3.897000000     8.146000000
H     3.821000000     2.563000000     7.437000000
O     6.977000000     0.359000000     6.657000000
H     7.321000000     0.036000000     5.824000000
H     7.188000000     1.292000000     6.656000000
O     4.350000000    -0.626000000     6.865000000
H     3.910000000    -0.592000000     6.015000000
H     5.166000000    -0.143000000     6.732000000
O     0.281000000     5.775000000     7.524000000
H     0.404000000     5.376000000     6.663000000
H    -0.631000000     5.586000000     7.746000000
O     1.466000000    -4.158000000     7.649000000
H     0.847000000    -3.942000000     6.952000000
H     1.075000000    -3.787000000     8.440000000
