218
-1487.36473
C    -2.870000000    -2.706000000     3.261000000
H    -2.395000000    -3.656000000     3.027000000
C    -3.414000000    -1.872000000     2.312000000
C    -3.929000000    -0.634000000     2.651000000
H    -4.138000000     0.188000000     1.972000000
C    -3.394000000    -2.372000000     0.924000000
O    -3.237000000    -3.806000000     0.803000000
H    -2.423000000    -1.972000000     0.597000000
O    -4.559000000    -1.901000000     0.140000000
C    -4.219000000    -1.410000000    -1.117000000
C    -4.085000000     0.057000000    -1.222000000
H    -4.344000000     0.636000000    -0.339000000
C    -3.718000000     0.621000000    -2.421000000
O    -3.800000000     2.017000000    -2.417000000
C    -3.451000000    -0.123000000    -3.560000000
C    -2.903000000     0.514000000    -4.818000000
H    -3.103000000    -0.191000000    -5.627000000
C    -1.417000000     0.951000000    -4.590000000
C    -0.427000000     0.025000000    -4.941000000
H    -0.655000000    -0.966000000    -5.324000000
H    -3.506000000     1.375000000    -5.114000000
C    -3.417000000    -1.544000000    -3.383000000
H    -3.220000000    -2.157000000    -4.259000000
C    -3.771000000    -2.226000000    -2.200000000
C    -3.676000000    -3.746000000    -2.128000000
H    -3.628000000    -4.190000000    -3.124000000
H    -4.498000000    -4.124000000    -1.515000000
C    -2.384000000    -4.161000000    -1.470000000
C    -1.264000000    -4.440000000    -2.249000000
H    -1.367000000    -4.354000000    -3.328000000
C    -2.282000000    -4.276000000    -0.083000000
C    -1.035000000    -4.607000000     0.525000000
H    -0.977000000    -4.461000000     1.601000000
C     0.058000000    -4.907000000    -0.298000000
O     1.271000000    -4.870000000     0.352000000
C     2.084000000    -3.699000000     0.283000000
C     2.587000000    -3.401000000     1.669000000
C     3.368000000    -2.275000000     1.766000000
H     3.536000000    -1.741000000     0.835000000
C     2.206000000    -4.097000000     2.869000000
H     1.637000000    -5.012000000     2.726000000
O     3.150000000    -3.945000000    -0.606000000
H     1.464000000    -2.884000000    -0.118000000
C    -0.038000000    -4.773000000    -1.682000000
C     1.114000000    -4.901000000    -2.613000000
H     0.794000000    -5.282000000    -3.585000000
H     1.733000000    -5.687000000    -2.175000000
C     1.922000000    -3.680000000    -2.724000000
C     1.735000000    -2.856000000    -3.837000000
H     0.951000000    -3.109000000    -4.546000000
C     2.919000000    -3.307000000    -1.808000000
C     3.517000000    -2.048000000    -1.869000000
H     4.101000000    -1.692000000    -1.024000000
C     3.161000000    -1.201000000    -2.914000000
O     3.707000000     0.038000000    -2.910000000
C     3.025000000     1.275000000    -2.595000000
C     3.859000000     2.255000000    -1.782000000
C     5.065000000     1.904000000    -1.193000000
H     5.427000000     0.882000000    -1.273000000
C     3.230000000     3.492000000    -1.558000000
H     2.200000000     3.565000000    -1.895000000
O     2.544000000     1.877000000    -3.783000000
H     2.122000000     1.009000000    -2.026000000
C     2.306000000    -1.586000000    -3.911000000
C     2.057000000    -0.647000000    -5.040000000
H     1.754000000    -1.173000000    -5.949000000
H     2.943000000    -0.141000000    -5.429000000
C     0.927000000     0.369000000    -4.742000000
C     1.235000000     1.603000000    -4.194000000
C     0.184000000     2.496000000    -3.804000000
H     0.418000000     3.412000000    -3.268000000
C    -1.077000000     2.197000000    -4.060000000
O    -2.058000000     2.980000000    -3.569000000
C    -2.554000000     2.596000000    -2.251000000
H    -1.818000000     1.888000000    -1.844000000
C    -2.565000000     3.809000000    -1.304000000
C    -3.416000000     3.814000000    -0.187000000
H    -3.956000000     2.902000000     0.056000000
C    -1.867000000     4.984000000    -1.684000000
H    -1.308000000     5.025000000    -2.616000000
C    -1.953000000     6.104000000    -0.812000000
O    -1.222000000     7.264000000    -1.098000000
C    -2.775000000     6.078000000     0.291000000
H    -2.846000000     6.953000000     0.932000000
C    -3.550000000     4.979000000     0.568000000
O    -4.198000000     5.058000000     1.775000000
C    -4.822000000     4.011000000     2.300000000
C    -4.136000000     2.996000000     2.940000000
H    -3.053000000     2.984000000     3.033000000
C    -6.236000000     4.055000000     2.421000000
H    -6.748000000     4.886000000     1.942000000
C    -6.919000000     3.029000000     3.078000000
H    -8.003000000     3.035000000     3.157000000
C    -6.198000000     1.985000000     3.624000000
H    -6.777000000     1.157000000     4.025000000
C    -4.843000000     1.969000000     3.659000000
O    -4.116000000     0.972000000     4.416000000
C    -3.888000000    -0.315000000     4.016000000
C    -3.429000000    -1.249000000     4.988000000
H    -3.409000000    -0.914000000     6.021000000
C    -2.918000000    -2.470000000     4.633000000
O    -2.570000000    -3.435000000     5.604000000
C    -1.440000000    -4.270000000     5.721000000
C    -0.142000000    -3.837000000     5.428000000
H     0.036000000    -2.863000000     4.978000000
C    -1.675000000    -5.445000000     6.527000000
H    -2.667000000    -5.683000000     6.903000000
C    -0.591000000    -6.247000000     6.823000000
H    -0.788000000    -7.192000000     7.324000000
C     0.669000000    -5.949000000     6.243000000
H     1.482000000    -6.607000000     6.541000000
C     0.889000000    -4.721000000     5.618000000
O     2.204000000    -4.268000000     5.341000000
C     2.551000000    -3.612000000     4.147000000
C     3.237000000    -2.447000000     4.246000000
H     3.499000000    -1.933000000     5.168000000
C     3.630000000    -1.771000000     3.053000000
O     4.360000000    -0.555000000     3.186000000
C     5.388000000    -0.365000000     2.340000000
C     5.624000000     0.866000000     1.770000000
H     5.020000000     1.738000000     2.010000000
C     6.287000000    -1.384000000     2.042000000
H     6.062000000    -2.366000000     2.450000000
C     7.411000000    -1.168000000     1.174000000
H     7.990000000    -1.977000000     0.736000000
C     7.542000000     0.105000000     0.579000000
H     8.419000000     0.381000000    -0.002000000
C     6.659000000     1.136000000     0.894000000
O     6.786000000     2.401000000     0.337000000
C     5.679000000     2.843000000    -0.379000000
C     5.102000000     4.114000000    -0.184000000
H     5.579000000     4.746000000     0.561000000
C     3.912000000     4.450000000    -0.829000000
O     3.248000000     5.592000000    -0.493000000
C     2.288000000     6.164000000    -1.311000000
C     2.619000000     6.786000000    -2.504000000
H     3.669000000     6.808000000    -2.786000000
C     1.766000000     7.554000000    -3.293000000
H     2.097000000     7.998000000    -4.229000000
C     0.433000000     7.658000000    -2.789000000
H    -0.316000000     8.163000000    -3.392000000
C     0.100000000     7.194000000    -1.547000000
C     1.058000000     6.536000000    -0.730000000
H     0.780000000     6.280000000     0.290000000
C    -0.319000000     1.807000000     1.564000000
H    -0.941000000     2.569000000     2.026000000
C    -0.815000000     0.936000000     0.636000000
H    -1.881000000     0.952000000     0.426000000
C     0.081000000     0.081000000    -0.108000000
C    -0.341000000    -0.770000000    -1.251000000
H    -0.897000000    -0.097000000    -1.908000000
H     0.542000000    -1.130000000    -1.783000000
H    -0.931000000    -1.618000000    -0.897000000
C     1.411000000     0.201000000     0.186000000
H     2.126000000    -0.385000000    -0.386000000
C     1.891000000     0.974000000     1.183000000
H     2.943000000     1.042000000     1.449000000
C     1.057000000     1.829000000     1.882000000
C     1.579000000     2.615000000     3.025000000
O     2.743000000     2.525000000     3.319000000
O     0.898000000     3.440000000     3.646000000
O     5.786000000     4.029000000     4.711000000
H     4.994000000     4.181000000     4.197000000
H     5.466000000     3.731000000     5.562000000
O     3.683000000     5.000000000     2.894000000
H     3.025000000     5.598000000     3.247000000
H     3.249000000     4.146000000     2.883000000
O    -1.382000000     2.999000000     4.933000000
H    -0.649000000     3.183000000     4.346000000
H    -1.184000000     2.139000000     5.303000000
O    -0.379000000     5.984000000     2.998000000
H     0.420000000     6.487000000     2.843000000
H    -0.075000000     5.169000000     3.399000000
O    -0.058000000     0.244000000     5.449000000
H     0.017000000    -0.197000000     4.603000000
H    -0.374000000    -0.435000000     6.046000000
O    -0.115000000    -0.868000000     3.055000000
H     0.758000000    -1.050000000     2.707000000
H    -0.445000000    -0.153000000     2.512000000
O     3.176000000     1.956000000     6.250000000
H     3.172000000     2.845000000     6.606000000
H     3.142000000     2.077000000     5.301000000
O    -2.731000000     6.462000000     3.943000000
H    -3.372000000     6.121000000     3.318000000
H    -1.883000000     6.299000000     3.529000000
O    -1.737000000     5.225000000     6.294000000
H    -2.367000000     5.492000000     5.625000000
H    -1.512000000     4.323000000     6.065000000
O     1.591000000     4.875000000     5.757000000
H     1.181000000     5.703000000     5.507000000
H     1.420000000     4.290000000     5.019000000
O     4.202000000     7.891000000     1.253000000
H     4.564000000     8.274000000     2.052000000
H     4.338000000     6.949000000     1.355000000
O     6.090000000     2.399000000     7.355000000
H     5.268000000     2.868000000     7.499000000
H     5.845000000     1.647000000     6.816000000
O     4.063000000     4.664000000     6.879000000
H     3.312000000     4.858000000     6.319000000
H     4.450000000     5.520000000     7.066000000
O     2.039000000     7.139000000     3.670000000
H     2.495000000     7.787000000     3.133000000
H     2.232000000     7.396000000     4.571000000
O     1.948000000    -0.099000000     7.558000000
H     1.243000000     0.121000000     6.949000000
H     2.706000000     0.387000000     7.233000000
O     6.256000000     6.806000000     3.172000000
H     6.160000000     7.275000000     4.001000000
H     5.488000000     6.237000000     3.129000000
O     5.801000000     0.224000000     5.427000000
H     5.303000000    -0.001000000     4.640000000
H     6.712000000     0.046000000     5.193000000
O     0.625000000     2.703000000     7.467000000
H     0.566000000     3.582000000     7.093000000
H     1.067000000     2.185000000     6.794000000
O    -1.820000000     1.343000000     8.002000000
H    -1.440000000     0.613000000     8.490000000
H    -1.074000000     1.902000000     7.785000000
