218
-1497.49744
C    -4.088000000     2.127000000    -2.855000000
H    -3.441000000     1.922000000    -3.704000000
C    -3.616000000     2.808000000    -1.703000000
C    -4.437000000     2.900000000    -0.551000000
H    -4.077000000     3.451000000     0.314000000
C    -2.186000000     3.257000000    -1.622000000
O    -1.735000000     3.746000000    -2.885000000
H    -1.537000000     2.451000000    -1.250000000
O    -2.069000000     4.308000000    -0.610000000
C    -0.899000000     4.432000000     0.200000000
C    -0.970000000     4.165000000     1.575000000
H    -1.953000000     3.887000000     1.946000000
C     0.104000000     4.053000000     2.374000000
O    -0.009000000     3.485000000     3.565000000
C     1.319000000     4.344000000     1.805000000
C     2.662000000     4.271000000     2.562000000
H     3.424000000     4.990000000     2.254000000
C     3.340000000     2.998000000     2.655000000
C     4.217000000     2.594000000     1.607000000
H     4.361000000     3.244000000     0.748000000
H     2.509000000     4.672000000     3.566000000
C     1.403000000     4.684000000     0.419000000
H     2.317000000     4.846000000    -0.146000000
C     0.305000000     4.799000000    -0.386000000
C     0.493000000     5.212000000    -1.826000000
H     1.246000000     5.993000000    -1.950000000
H    -0.448000000     5.703000000    -2.083000000
C     0.631000000     4.000000000    -2.733000000
C     1.887000000     3.612000000    -3.204000000
H     2.768000000     4.145000000    -2.855000000
C    -0.483000000     3.307000000    -3.137000000
C    -0.416000000     2.154000000    -3.925000000
H    -1.248000000     1.478000000    -4.108000000
C     0.898000000     1.734000000    -4.308000000
O     0.938000000     0.521000000    -5.017000000
C     1.123000000    -0.641000000    -4.212000000
C     0.200000000    -1.804000000    -4.551000000
C     0.698000000    -3.147000000    -4.470000000
H     1.754000000    -3.309000000    -4.274000000
C    -1.147000000    -1.625000000    -4.714000000
H    -1.569000000    -0.632000000    -4.843000000
O     2.536000000    -1.022000000    -4.095000000
H     0.800000000    -0.439000000    -3.180000000
C     2.042000000     2.431000000    -3.958000000
C     3.397000000     1.821000000    -4.121000000
H     4.179000000     2.583000000    -4.093000000
H     3.505000000     1.250000000    -5.045000000
C     3.720000000     0.886000000    -2.963000000
C     4.467000000     1.262000000    -1.869000000
H     4.694000000     2.314000000    -1.714000000
C     3.263000000    -0.475000000    -3.044000000
C     3.406000000    -1.329000000    -1.978000000
H     2.999000000    -2.337000000    -1.967000000
C     4.143000000    -0.963000000    -0.876000000
O     4.324000000    -1.902000000     0.113000000
C     3.580000000    -1.769000000     1.358000000
C     2.992000000    -3.181000000     1.797000000
C     2.429000000    -4.023000000     0.847000000
H     2.517000000    -3.824000000    -0.218000000
C     2.775000000    -3.435000000     3.173000000
H     3.111000000    -2.741000000     3.940000000
O     4.342000000    -1.080000000     2.339000000
H     2.680000000    -1.151000000     1.222000000
C     4.651000000     0.347000000    -0.793000000
C     5.540000000     0.819000000     0.399000000
H     6.147000000     1.666000000     0.072000000
H     6.331000000     0.168000000     0.778000000
C     4.604000000     1.240000000     1.528000000
C     4.103000000     0.296000000     2.469000000
C     3.288000000     0.730000000     3.490000000
H     2.873000000     0.004000000     4.184000000
C     2.884000000     2.046000000     3.599000000
O     1.849000000     2.329000000     4.489000000
C     0.560000000     2.232000000     3.810000000
H     0.672000000     1.744000000     2.830000000
C    -0.456000000     1.405000000     4.527000000
C    -1.727000000     1.343000000     3.975000000
H    -2.003000000     1.971000000     3.132000000
C    -0.100000000     0.445000000     5.506000000
H     0.889000000     0.457000000     5.958000000
C    -0.980000000    -0.520000000     5.863000000
O    -0.616000000    -1.374000000     6.887000000
C    -2.267000000    -0.599000000     5.283000000
H    -2.878000000    -1.466000000     5.521000000
C    -2.626000000     0.304000000     4.365000000
O    -3.832000000     0.121000000     3.812000000
C    -4.663000000     1.201000000     3.458000000
C    -5.116000000     1.275000000     2.140000000
H    -4.816000000     0.520000000     1.418000000
C    -5.152000000     2.067000000     4.403000000
H    -4.791000000     2.079000000     5.429000000
C    -5.942000000     3.146000000     4.068000000
H    -6.164000000     3.846000000     4.869000000
C    -6.421000000     3.264000000     2.713000000
H    -7.178000000     4.002000000     2.455000000
C    -6.008000000     2.342000000     1.770000000
O    -6.576000000     2.247000000     0.553000000
C    -5.739000000     2.375000000    -0.611000000
C    -6.218000000     1.852000000    -1.767000000
H    -7.235000000     1.472000000    -1.701000000
C    -5.453000000     1.668000000    -2.879000000
O    -6.014000000     1.133000000    -4.006000000
C    -5.225000000     0.561000000    -4.986000000
C    -4.610000000    -0.636000000    -4.680000000
H    -4.580000000    -1.077000000    -3.687000000
C    -5.229000000     0.974000000    -6.318000000
H    -5.662000000     1.939000000    -6.569000000
C    -4.485000000     0.334000000    -7.330000000
H    -4.401000000     0.803000000    -8.307000000
C    -3.878000000    -0.890000000    -6.997000000
H    -3.377000000    -1.448000000    -7.784000000
C    -3.998000000    -1.378000000    -5.701000000
O    -3.368000000    -2.527000000    -5.365000000
C    -1.968000000    -2.684000000    -5.077000000
C    -1.487000000    -3.950000000    -4.944000000
H    -2.235000000    -4.737000000    -4.967000000
C    -0.180000000    -4.218000000    -4.556000000
O     0.150000000    -5.512000000    -4.311000000
C     1.006000000    -5.840000000    -3.299000000
C     0.601000000    -5.653000000    -1.943000000
H    -0.373000000    -5.238000000    -1.698000000
C     2.337000000    -6.130000000    -3.573000000
H     2.509000000    -6.163000000    -4.646000000
C     3.306000000    -6.374000000    -2.605000000
H     4.331000000    -6.588000000    -2.897000000
C     2.839000000    -6.279000000    -1.246000000
H     3.495000000    -6.465000000    -0.399000000
C     1.502000000    -5.975000000    -0.976000000
O     1.079000000    -5.961000000     0.321000000
C     1.663000000    -5.125000000     1.278000000
C     1.482000000    -5.426000000     2.674000000
H     0.854000000    -6.213000000     3.084000000
C     2.058000000    -4.563000000     3.555000000
O     1.980000000    -4.854000000     4.900000000
C     1.771000000    -3.949000000     5.881000000
C     2.498000000    -4.054000000     7.112000000
H     3.236000000    -4.843000000     7.238000000
C     2.235000000    -3.177000000     8.140000000
H     2.709000000    -3.257000000     9.115000000
C     1.278000000    -2.135000000     7.992000000
H     0.876000000    -1.598000000     8.847000000
C     0.549000000    -2.077000000     6.819000000
C     0.813000000    -2.971000000     5.761000000
H     0.247000000    -2.908000000     4.836000000
C    -0.757000000    -2.148000000     1.439000000
H    -0.715000000    -2.742000000     2.349000000
C    -0.046000000    -0.998000000     1.460000000
H     0.461000000    -0.682000000     2.368000000
C     0.137000000    -0.227000000     0.293000000
C     1.085000000     0.988000000     0.203000000
H     1.754000000     1.138000000     1.053000000
H     1.695000000     0.819000000    -0.686000000
H     0.599000000     1.905000000    -0.135000000
C    -0.537000000    -0.557000000    -0.810000000
H    -0.354000000    -0.040000000    -1.748000000
C    -1.480000000    -1.642000000    -0.766000000
H    -2.117000000    -1.886000000    -1.612000000
C    -1.566000000    -2.497000000     0.339000000
C    -2.472000000    -3.677000000     0.388000000
O    -3.086000000    -4.004000000    -0.596000000
O    -2.586000000    -4.236000000     1.476000000
O    -5.825000000    -4.156000000    -0.008000000
H    -6.162000000    -3.361000000    -0.420000000
H    -4.878000000    -4.115000000    -0.147000000
O    -6.555000000    -4.545000000     2.669000000
H    -6.468000000    -4.464000000     1.719000000
H    -5.827000000    -4.032000000     3.020000000
O    -0.279000000    -8.295000000     4.333000000
H    -1.148000000    -8.144000000     3.960000000
H    -0.313000000    -7.881000000     5.195000000
O    -0.530000000    -6.135000000     6.005000000
H     0.267000000    -5.713000000     5.683000000
H    -1.243000000    -5.627000000     5.617000000
O    -0.168000000    -9.162000000     0.036000000
H    -0.717000000    -9.620000000     0.673000000
H    -0.472000000    -8.255000000     0.067000000
O    -6.957000000    -7.282000000     2.067000000
H    -7.129000000    -6.507000000     2.602000000
H    -6.613000000    -6.933000000     1.245000000
O    -4.419000000    -8.990000000    -1.033000000
H    -5.290000000    -8.615000000    -0.903000000
H    -3.904000000    -8.275000000    -1.407000000
O    -4.660000000    -3.774000000     5.727000000
H    -5.080000000    -3.093000000     5.201000000
H    -3.989000000    -4.141000000     5.151000000
O    -4.197000000    -6.522000000     1.265000000
H    -4.642000000    -6.228000000     0.469000000
H    -3.535000000    -5.851000000     1.430000000
O    -4.989000000    -9.233000000     1.814000000
H    -5.754000000    -8.666000000     1.916000000
H    -4.646000000    -9.018000000     0.946000000
O    -2.952000000    -7.336000000    -4.195000000
H    -2.817000000    -6.767000000    -3.437000000
H    -2.096000000    -7.371000000    -4.623000000
O    -7.510000000    -1.600000000    -0.497000000
H    -7.886000000    -1.752000000     0.370000000
H    -7.831000000    -0.735000000    -0.750000000
O    -5.095000000    -3.191000000    -2.570000000
H    -4.519000000    -3.562000000    -1.901000000
H    -4.503000000    -2.737000000    -3.170000000
O    -2.262000000    -5.047000000     4.304000000
H    -2.035000000    -4.674000000     3.452000000
H    -2.639000000    -5.902000000     4.098000000
O    -7.761000000    -3.100000000    -2.794000000
H    -6.916000000    -3.547000000    -2.747000000
H    -7.772000000    -2.527000000    -2.027000000
O    -4.152000000    -2.870000000     3.088000000
H    -3.619000000    -3.439000000     2.533000000
H    -3.875000000    -1.983000000     2.857000000
O    -3.168000000    -7.506000000     3.486000000
H    -3.703000000    -7.240000000     2.738000000
H    -3.789000000    -7.900000000     4.098000000
O    -6.388000000    -6.640000000    -1.211000000
H    -6.315000000    -5.717000000    -0.968000000
H    -6.279000000    -6.647000000    -2.162000000
O    -2.942000000    -6.537000000    -1.420000000
H    -2.674000000    -6.892000000    -0.573000000
H    -2.849000000    -5.589000000    -1.323000000
