218
-1460.43181
C    -3.747000000    -2.485000000     3.296000000
H    -4.033000000    -3.465000000     2.922000000
C    -3.868000000    -1.410000000     2.384000000
C    -3.690000000    -0.162000000     2.978000000
H    -3.753000000     0.664000000     2.274000000
C    -3.884000000    -1.544000000     0.860000000
O    -4.141000000    -2.905000000     0.396000000
H    -2.868000000    -1.184000000     0.641000000
O    -4.841000000    -0.752000000     0.146000000
C    -4.454000000    -0.058000000    -1.008000000
C    -4.297000000     1.269000000    -0.901000000
H    -4.460000000     1.793000000     0.037000000
C    -3.714000000     1.966000000    -1.935000000
O    -3.379000000     3.305000000    -1.728000000
C    -3.396000000     1.355000000    -3.116000000
C    -2.876000000     2.087000000    -4.256000000
H    -3.256000000     1.568000000    -5.138000000
C    -1.350000000     2.055000000    -4.250000000
C    -0.678000000     1.036000000    -4.968000000
H    -1.242000000     0.414000000    -5.658000000
H    -3.358000000     3.065000000    -4.205000000
C    -3.783000000    -0.006000000    -3.282000000
H    -3.701000000    -0.487000000    -4.254000000
C    -4.293000000    -0.775000000    -2.239000000
C    -4.549000000    -2.226000000    -2.408000000
H    -4.738000000    -2.580000000    -3.424000000
H    -5.464000000    -2.604000000    -1.948000000
C    -3.376000000    -3.057000000    -1.901000000
C    -2.323000000    -3.447000000    -2.804000000
H    -2.539000000    -3.270000000    -3.855000000
C    -3.220000000    -3.343000000    -0.544000000
C    -2.046000000    -4.023000000    -0.122000000
H    -1.842000000    -4.201000000     0.931000000
C    -1.069000000    -4.497000000    -1.013000000
O     0.066000000    -5.046000000    -0.434000000
C     1.181000000    -4.103000000    -0.253000000
C     1.882000000    -4.397000000     1.014000000
C     3.157000000    -3.968000000     1.261000000
H     3.755000000    -3.553000000     0.455000000
C     1.121000000    -4.908000000     2.066000000
H     0.079000000    -5.198000000     1.959000000
O     1.936000000    -4.230000000    -1.453000000
H     0.881000000    -3.061000000    -0.064000000
C    -1.205000000    -4.253000000    -2.391000000
C    -0.150000000    -4.553000000    -3.448000000
H    -0.655000000    -4.622000000    -4.413000000
H     0.332000000    -5.506000000    -3.225000000
C     0.880000000    -3.450000000    -3.512000000
C     0.844000000    -2.473000000    -4.531000000
H     0.173000000    -2.598000000    -5.377000000
C     1.844000000    -3.354000000    -2.480000000
C     2.821000000    -2.339000000    -2.602000000
H     3.493000000    -2.132000000    -1.773000000
C     2.806000000    -1.377000000    -3.611000000
O     3.658000000    -0.308000000    -3.446000000
C     3.102000000     0.887000000    -2.778000000
C     3.973000000     1.579000000    -1.726000000
C     4.105000000     0.921000000    -0.531000000
H     3.663000000    -0.040000000    -0.283000000
C     4.413000000     2.876000000    -1.884000000
H     4.190000000     3.484000000    -2.757000000
O     2.784000000     1.822000000    -3.765000000
H     2.203000000     0.604000000    -2.211000000
C     1.729000000    -1.322000000    -4.488000000
C     1.502000000    -0.192000000    -5.553000000
H     0.816000000    -0.583000000    -6.308000000
H     2.485000000     0.064000000    -5.954000000
C     0.707000000     0.912000000    -4.857000000
C     1.430000000     1.918000000    -4.127000000
C     0.735000000     3.042000000    -3.691000000
H     1.285000000     3.785000000    -3.118000000
C    -0.659000000     3.012000000    -3.531000000
O    -1.292000000     4.052000000    -2.782000000
C    -1.928000000     3.575000000    -1.570000000
H    -1.491000000     2.583000000    -1.386000000
C    -1.473000000     4.439000000    -0.423000000
C    -2.383000000     4.647000000     0.609000000
H    -3.269000000     4.020000000     0.666000000
C    -0.353000000     5.253000000    -0.501000000
H     0.410000000     5.087000000    -1.257000000
C     0.005000000     6.153000000     0.489000000
O     1.126000000     6.926000000     0.534000000
C    -0.838000000     6.224000000     1.620000000
H    -0.598000000     6.837000000     2.485000000
C    -2.061000000     5.503000000     1.698000000
O    -2.828000000     5.683000000     2.822000000
C    -3.570000000     4.619000000     3.410000000
C    -2.903000000     3.551000000     3.989000000
H    -1.834000000     3.570000000     4.183000000
C    -4.954000000     4.542000000     3.279000000
H    -5.474000000     5.348000000     2.768000000
C    -5.661000000     3.458000000     3.721000000
H    -6.742000000     3.454000000     3.600000000
C    -4.988000000     2.366000000     4.171000000
H    -5.554000000     1.468000000     4.404000000
C    -3.627000000     2.423000000     4.354000000
O    -2.939000000     1.290000000     4.651000000
C    -3.304000000     0.015000000     4.250000000
C    -3.176000000    -1.037000000     5.119000000
H    -2.863000000    -0.975000000     6.158000000
C    -3.458000000    -2.325000000     4.628000000
O    -3.251000000    -3.378000000     5.571000000
C    -2.500000000    -4.476000000     5.190000000
C    -1.153000000    -4.403000000     4.773000000
H    -0.663000000    -3.436000000     4.853000000
C    -3.261000000    -5.661000000     4.901000000
H    -4.334000000    -5.705000000     5.070000000
C    -2.564000000    -6.853000000     4.518000000
H    -3.026000000    -7.798000000     4.248000000
C    -1.221000000    -6.792000000     4.407000000
H    -0.765000000    -7.715000000     4.057000000
C    -0.498000000    -5.578000000     4.578000000
O     0.876000000    -5.500000000     4.415000000
C     1.671000000    -5.099000000     3.344000000
C     3.022000000    -4.669000000     3.573000000
H     3.477000000    -4.786000000     4.553000000
C     3.681000000    -4.172000000     2.541000000
O     5.020000000    -3.845000000     2.754000000
C     5.690000000    -2.819000000     2.097000000
C     5.177000000    -1.517000000     2.092000000
H     4.192000000    -1.362000000     2.526000000
C     6.953000000    -3.101000000     1.608000000
H     7.355000000    -4.109000000     1.554000000
C     7.643000000    -2.040000000     0.994000000
H     8.601000000    -2.179000000     0.500000000
C     7.133000000    -0.754000000     1.021000000
H     7.673000000     0.087000000     0.595000000
C     5.910000000    -0.481000000     1.582000000
O     5.280000000     0.746000000     1.651000000
C     4.924000000     1.438000000     0.470000000
C     5.316000000     2.790000000     0.395000000
H     5.842000000     3.276000000     1.213000000
C     5.058000000     3.541000000    -0.786000000
O     5.265000000     4.904000000    -0.682000000
C     4.300000000     5.846000000    -0.940000000
C     4.317000000     6.712000000    -2.035000000
H     5.176000000     6.658000000    -2.699000000
C     3.209000000     7.546000000    -2.362000000
H     3.255000000     8.238000000    -3.199000000
C     2.141000000     7.618000000    -1.513000000
H     1.340000000     8.332000000    -1.689000000
C     2.197000000     6.886000000    -0.338000000
C     3.216000000     5.982000000    -0.075000000
H     3.225000000     5.463000000     0.880000000
C     1.111000000     1.763000000     1.371000000
H     1.640000000     2.712000000     1.418000000
C     0.610000000     1.285000000     0.178000000
H     0.971000000     1.802000000    -0.707000000
C    -0.066000000     0.067000000     0.125000000
C    -0.539000000    -0.552000000    -1.226000000
H     0.351000000    -0.791000000    -1.812000000
H    -1.118000000    -1.471000000    -1.114000000
H    -1.075000000     0.214000000    -1.790000000
C    -0.331000000    -0.648000000     1.285000000
H    -0.755000000    -1.648000000     1.318000000
C    -0.041000000     0.011000000     2.569000000
H    -0.323000000    -0.584000000     3.435000000
C     0.791000000     1.112000000     2.581000000
C     1.110000000     1.595000000     3.875000000
O     0.930000000     0.928000000     4.883000000
O     1.598000000     2.694000000     3.983000000
O     6.108000000     5.391000000     5.375000000
H     5.386000000     4.773000000     5.260000000
H     6.739000000     4.923000000     5.923000000
O     5.110000000     3.009000000     7.622000000
H     4.950000000     2.625000000     8.484000000
H     4.507000000     2.549000000     7.039000000
O     2.517000000     7.232000000     3.309000000
H     2.049000000     7.876000000     3.840000000
H     2.217000000     7.394000000     2.415000000
O     1.706000000     5.024000000     7.439000000
H     1.600000000     4.180000000     7.879000000
H     2.396000000     5.467000000     7.933000000
O     5.487000000    -0.038000000     6.260000000
H     4.741000000     0.533000000     6.078000000
H     6.184000000     0.290000000     5.692000000
O     1.774000000    -1.658000000     5.655000000
H     1.086000000    -1.779000000     6.309000000
H     1.597000000    -0.797000000     5.277000000
O     1.888000000     2.753000000     8.624000000
H     2.171000000     2.373000000     7.791000000
H     2.604000000     2.562000000     9.229000000
O     0.560000000     4.940000000     5.087000000
H     0.762000000     4.048000000     4.803000000
H     1.289000000     5.180000000     5.659000000
O    -1.274000000     3.759000000     7.146000000
H    -0.708000000     3.020000000     7.368000000
H    -0.769000000     4.264000000     6.508000000
O    -3.762000000     3.349000000     7.793000000
H    -3.752000000     2.457000000     8.139000000
H    -2.839000000     3.592000000     7.728000000
O     0.953000000    -0.255000000     9.438000000
H     1.693000000    -0.384000000    10.032000000
H     0.277000000     0.149000000     9.983000000
O     4.453000000    -2.741000000     5.779000000
H     3.566000000    -2.861000000     5.440000000
H     4.649000000    -1.819000000     5.615000000
O    -0.899000000     0.806000000     6.708000000
H    -1.537000000     1.141000000     6.078000000
H    -0.152000000     0.537000000     6.173000000
O    -2.252000000     0.832000000     9.158000000
H    -1.789000000     0.934000000     9.990000000
H    -1.587000000     1.007000000     8.491000000
O    -0.389000000    -1.688000000     7.457000000
H     0.208000000    -1.246000000     8.061000000
H    -1.209000000    -1.200000000     7.532000000
O     5.444000000     2.250000000     4.108000000
H     4.921000000     3.038000000     3.965000000
H     5.390000000     1.772000000     3.280000000
O     3.551000000     4.348000000     3.556000000
H     3.157000000     5.183000000     3.807000000
H     2.866000000     3.700000000     3.720000000
O     3.036000000     1.331000000     6.414000000
H     2.451000000     0.637000000     6.717000000
H     2.728000000     1.535000000     5.531000000
O    -0.629000000     7.253000000     5.560000000
H    -1.365000000     6.829000000     6.001000000
H     0.003000000     6.548000000     5.417000000
