218
-1464.85360
C    -4.662000000    -1.064000000     1.491000000
H    -4.242000000    -2.065000000     1.552000000
C    -4.596000000    -0.390000000     0.257000000
C    -4.938000000     0.950000000     0.336000000
H    -4.900000000     1.550000000    -0.570000000
C    -3.961000000    -1.055000000    -0.981000000
O    -4.212000000    -2.468000000    -1.086000000
H    -2.888000000    -0.843000000    -0.855000000
O    -4.323000000    -0.355000000    -2.234000000
C    -3.297000000    -0.113000000    -3.153000000
C    -2.866000000     1.201000000    -3.236000000
H    -3.307000000     2.053000000    -2.725000000
C    -1.860000000     1.538000000    -4.124000000
O    -1.344000000     2.850000000    -4.020000000
C    -1.251000000     0.619000000    -4.895000000
C     0.025000000     0.933000000    -5.670000000
H     0.195000000     0.106000000    -6.363000000
C     1.230000000     0.931000000    -4.763000000
C     2.080000000    -0.239000000    -4.821000000
H     1.872000000    -1.019000000    -5.549000000
H    -0.057000000     1.833000000    -6.283000000
C    -1.684000000    -0.716000000    -4.807000000
H    -1.121000000    -1.500000000    -5.307000000
C    -2.721000000    -1.068000000    -3.949000000
C    -3.163000000    -2.547000000    -3.780000000
H    -2.791000000    -3.114000000    -4.637000000
H    -4.224000000    -2.799000000    -3.832000000
C    -2.475000000    -3.242000000    -2.532000000
C    -1.238000000    -3.914000000    -2.701000000
H    -0.821000000    -3.958000000    -3.704000000
C    -3.164000000    -3.277000000    -1.321000000
C    -2.504000000    -3.737000000    -0.228000000
H    -2.922000000    -3.623000000     0.769000000
C    -1.212000000    -4.250000000    -0.282000000
O    -0.634000000    -4.612000000     0.942000000
C     0.507000000    -3.846000000     1.394000000
C     0.460000000    -3.688000000     2.855000000
C     1.506000000    -3.066000000     3.479000000
H     2.360000000    -2.728000000     2.898000000
C    -0.650000000    -4.128000000     3.568000000
H    -1.484000000    -4.642000000     3.096000000
O     1.751000000    -4.385000000     0.878000000
H     0.446000000    -2.845000000     0.942000000
C    -0.643000000    -4.479000000    -1.552000000
C     0.696000000    -5.182000000    -1.800000000
H     0.845000000    -5.729000000    -2.733000000
H     0.897000000    -5.996000000    -1.101000000
C     1.766000000    -4.121000000    -1.528000000
C     2.272000000    -3.449000000    -2.689000000
H     1.961000000    -3.753000000    -3.685000000
C     2.275000000    -3.876000000    -0.248000000
C     3.224000000    -2.849000000    -0.124000000
H     3.636000000    -2.588000000     0.847000000
C     3.790000000    -2.307000000    -1.247000000
O     4.702000000    -1.326000000    -1.060000000
C     4.111000000     0.004000000    -1.000000000
C     4.735000000     0.749000000     0.223000000
C     5.303000000    -0.007000000     1.312000000
H     5.417000000    -1.088000000     1.332000000
C     4.695000000     2.138000000     0.302000000
H     4.208000000     2.700000000    -0.491000000
O     4.498000000     0.674000000    -2.244000000
H     3.014000000     0.066000000    -0.938000000
C     3.335000000    -2.575000000    -2.561000000
C     3.823000000    -1.763000000    -3.783000000
H     3.784000000    -2.350000000    -4.703000000
H     4.844000000    -1.451000000    -3.551000000
C     3.134000000    -0.438000000    -3.921000000
C     3.477000000     0.647000000    -3.153000000
C     2.827000000     1.882000000    -3.269000000
H     3.281000000     2.738000000    -2.776000000
C     1.669000000     1.972000000    -3.933000000
O     0.932000000     3.081000000    -3.718000000
C    -0.329000000     2.993000000    -3.045000000
H    -0.240000000     2.096000000    -2.415000000
C    -0.585000000     4.184000000    -2.126000000
C    -1.869000000     4.693000000    -1.938000000
H    -2.687000000     4.354000000    -2.569000000
C     0.408000000     4.715000000    -1.305000000
H     1.417000000     4.418000000    -1.578000000
C     0.169000000     5.736000000    -0.400000000
O     1.139000000     6.178000000     0.520000000
C    -1.109000000     6.204000000    -0.237000000
H    -1.201000000     6.961000000     0.539000000
C    -2.111000000     5.718000000    -1.063000000
O    -3.370000000     6.283000000    -0.968000000
C    -4.507000000     5.458000000    -0.781000000
C    -4.505000000     4.477000000     0.204000000
H    -3.812000000     4.460000000     1.042000000
C    -5.482000000     5.451000000    -1.741000000
H    -5.364000000     6.077000000    -2.622000000
C    -6.626000000     4.689000000    -1.591000000
H    -7.401000000     4.701000000    -2.353000000
C    -6.760000000     3.951000000    -0.469000000
H    -7.728000000     3.501000000    -0.263000000
C    -5.717000000     3.840000000     0.444000000
O    -5.842000000     3.011000000     1.525000000
C    -5.467000000     1.608000000     1.454000000
C    -5.419000000     0.912000000     2.658000000
H    -5.854000000     1.294000000     3.578000000
C    -5.050000000    -0.448000000     2.655000000
O    -5.045000000    -1.046000000     3.913000000
C    -4.730000000    -2.367000000     4.165000000
C    -3.522000000    -2.717000000     4.751000000
H    -2.840000000    -1.880000000     4.874000000
C    -5.610000000    -3.462000000     3.840000000
H    -6.587000000    -3.141000000     3.488000000
C    -5.258000000    -4.772000000     4.117000000
H    -5.901000000    -5.579000000     3.774000000
C    -3.987000000    -5.059000000     4.677000000
H    -3.842000000    -6.070000000     5.046000000
C    -3.140000000    -4.015000000     5.029000000
O    -1.900000000    -4.231000000     5.606000000
C    -0.749000000    -3.909000000     4.922000000
C     0.388000000    -3.410000000     5.589000000
H     0.294000000    -3.304000000     6.667000000
C     1.486000000    -2.909000000     4.861000000
O     2.462000000    -2.173000000     5.525000000
C     3.752000000    -2.192000000     5.068000000
C     4.326000000    -1.110000000     4.461000000
H     3.691000000    -0.245000000     4.289000000
C     4.500000000    -3.355000000     5.318000000
H     4.075000000    -4.229000000     5.803000000
C     5.834000000    -3.369000000     4.887000000
H     6.487000000    -4.219000000     5.070000000
C     6.403000000    -2.280000000     4.242000000
H     7.467000000    -2.229000000     4.029000000
C     5.702000000    -1.147000000     4.104000000
O     6.280000000     0.005000000     3.567000000
C     5.675000000     0.695000000     2.462000000
C     5.556000000     2.070000000     2.569000000
H     5.904000000     2.583000000     3.462000000
C     5.173000000     2.800000000     1.436000000
O     5.227000000     4.197000000     1.487000000
C     4.563000000     5.006000000     0.694000000
C     5.178000000     5.761000000    -0.307000000
H     6.224000000     5.673000000    -0.588000000
C     4.388000000     6.597000000    -1.098000000
H     4.823000000     7.100000000    -1.958000000
C     3.007000000     6.752000000    -0.806000000
H     2.309000000     7.297000000    -1.437000000
C     2.503000000     6.057000000     0.293000000
C     3.219000000     5.140000000     0.961000000
H     2.707000000     4.591000000     1.746000000
C     0.668000000     2.023000000     1.160000000
H     1.245000000     2.938000000     1.265000000
C     0.764000000     1.378000000    -0.012000000
H     1.376000000     1.680000000    -0.859000000
C     0.074000000     0.140000000    -0.125000000
C     0.105000000    -0.517000000    -1.461000000
H    -0.163000000    -1.571000000    -1.370000000
H    -0.378000000     0.149000000    -2.179000000
H     1.095000000    -0.586000000    -1.918000000
C    -0.726000000    -0.365000000     0.872000000
H    -1.158000000    -1.347000000     0.695000000
C    -0.849000000     0.362000000     2.038000000
H    -1.489000000    -0.006000000     2.835000000
C    -0.189000000     1.598000000     2.170000000
C    -0.412000000     2.353000000     3.464000000
O    -1.410000000     2.210000000     4.130000000
O     0.414000000     3.228000000     3.846000000
O    -3.206000000     0.655000000     5.205000000
H    -2.617000000     1.311000000     4.832000000
H    -3.943000000     0.619000000     4.595000000
O    -2.448000000     8.182000000     2.279000000
H    -2.027000000     7.954000000     3.108000000
H    -3.200000000     7.592000000     2.221000000
O    -0.824000000     0.148000000     7.956000000
H    -1.250000000    -0.696000000     7.810000000
H    -0.288000000     0.013000000     8.738000000
O     1.926000000     1.465000000     5.635000000
H     1.331000000     1.591000000     6.374000000
H     1.493000000     1.902000000     4.902000000
O     2.435000000     8.178000000     3.242000000
H     2.305000000     8.038000000     4.180000000
H     2.070000000     7.394000000     2.830000000
O    -1.076000000     6.887000000     4.286000000
H    -1.443000000     6.172000000     4.806000000
H    -0.224000000     6.559000000     3.996000000
O    -2.256000000     4.856000000     7.683000000
H    -2.203000000     5.267000000     6.820000000
H    -1.981000000     3.952000000     7.535000000
O    -5.288000000     5.129000000     4.227000000
H    -6.157000000     4.792000000     4.009000000
H    -5.291000000     5.200000000     5.182000000
O     3.468000000     4.117000000     5.528000000
H     2.769000000     3.463000000     5.569000000
H     3.960000000     3.992000000     6.340000000
O     2.865000000    -1.274000000     8.013000000
H     3.721000000    -1.662000000     8.196000000
H     2.762000000    -1.361000000     7.065000000
O    -1.028000000     2.609000000     6.707000000
H    -0.956000000     1.664000000     6.843000000
H    -0.947000000     2.721000000     5.760000000
O    -2.986000000     0.965000000     9.176000000
H    -2.197000000     0.710000000     8.699000000
H    -2.676000000     1.585000000     9.837000000
O     1.205000000     6.357000000     6.941000000
H     1.113000000     5.662000000     6.288000000
H     1.755000000     7.014000000     6.515000000
O     4.902000000     5.879000000     3.867000000
H     4.420000000     5.254000000     4.408000000
H     5.126000000     5.389000000     3.075000000
O    -4.918000000     1.725000000     7.359000000
H    -4.400000000     1.395000000     8.093000000
H    -4.374000000     1.558000000     6.589000000
O     4.077000000     1.001000000     7.066000000
H     3.771000000     0.145000000     7.365000000
H     3.483000000     1.231000000     6.351000000
O    -5.478000000     7.413000000     2.489000000
H    -5.826000000     8.153000000     2.986000000
H    -5.547000000     6.669000000     3.088000000
O     1.329000000     5.672000000     3.847000000
H     0.917000000     4.813000000     3.945000000
H     2.269000000     5.494000000     3.897000000
O    -2.305000000     4.725000000     4.779000000
H    -3.106000000     4.647000000     4.260000000
H    -1.874000000     3.876000000     4.683000000
