218
-1448.08887
C    -3.797000000    -1.841000000     2.168000000
H    -2.939000000    -2.501000000     2.266000000
C    -4.321000000    -1.481000000     0.895000000
C    -5.412000000    -0.600000000     0.834000000
H    -5.764000000    -0.116000000    -0.073000000
C    -3.677000000    -2.046000000    -0.376000000
O    -3.335000000    -3.422000000    -0.327000000
H    -2.771000000    -1.457000000    -0.582000000
O    -4.615000000    -1.692000000    -1.491000000
C    -4.005000000    -1.203000000    -2.618000000
C    -4.045000000     0.188000000    -2.804000000
H    -4.698000000     0.827000000    -2.216000000
C    -3.131000000     0.813000000    -3.643000000
O    -2.889000000     2.116000000    -3.407000000
C    -2.278000000     0.078000000    -4.413000000
C    -1.255000000     0.722000000    -5.366000000
H    -0.976000000     0.038000000    -6.170000000
C     0.122000000     1.034000000    -4.632000000
C     1.183000000     0.159000000    -4.830000000
H     1.015000000    -0.770000000    -5.369000000
H    -1.646000000     1.644000000    -5.803000000
C    -2.167000000    -1.312000000    -4.187000000
H    -1.372000000    -1.903000000    -4.635000000
C    -3.115000000    -1.974000000    -3.364000000
C    -2.958000000    -3.415000000    -3.165000000
H    -2.500000000    -3.783000000    -4.085000000
H    -3.844000000    -3.974000000    -2.857000000
C    -1.913000000    -3.906000000    -2.211000000
C    -0.651000000    -4.354000000    -2.642000000
H    -0.449000000    -4.333000000    -3.709000000
C    -2.164000000    -3.862000000    -0.785000000
C    -1.136000000    -4.230000000     0.086000000
H    -1.298000000    -4.357000000     1.154000000
C     0.133000000    -4.573000000    -0.413000000
O     1.073000000    -4.850000000     0.556000000
C     2.133000000    -3.912000000     0.802000000
C     2.406000000    -3.689000000     2.274000000
C     3.716000000    -3.506000000     2.757000000
H     4.513000000    -3.330000000     2.039000000
C     1.323000000    -3.789000000     3.110000000
H     0.305000000    -3.930000000     2.757000000
O     3.324000000    -4.247000000     0.062000000
H     1.678000000    -2.953000000     0.514000000
C     0.380000000    -4.564000000    -1.754000000
C     1.755000000    -4.893000000    -2.334000000
H     1.627000000    -5.133000000    -3.392000000
H     2.298000000    -5.656000000    -1.772000000
C     2.691000000    -3.673000000    -2.218000000
C     2.749000000    -2.669000000    -3.216000000
H     2.056000000    -2.713000000    -4.053000000
C     3.472000000    -3.451000000    -1.069000000
C     4.275000000    -2.282000000    -0.931000000
H     4.842000000    -2.253000000    -0.004000000
C     4.257000000    -1.268000000    -1.907000000
O     4.871000000    -0.090000000    -1.535000000
C     3.953000000     1.056000000    -1.501000000
C     4.291000000     2.037000000    -0.322000000
C     4.629000000     1.537000000     0.955000000
H     4.771000000     0.461000000     1.003000000
C     4.071000000     3.390000000    -0.455000000
H     3.693000000     3.730000000    -1.416000000
O     3.832000000     1.728000000    -2.801000000
H     2.967000000     0.681000000    -1.191000000
C     3.550000000    -1.518000000    -3.089000000
C     3.566000000    -0.585000000    -4.285000000
H     3.526000000    -1.146000000    -5.221000000
H     4.471000000     0.026000000    -4.261000000
C     2.439000000     0.432000000    -4.268000000
C     2.627000000     1.572000000    -3.505000000
C     1.574000000     2.375000000    -3.239000000
H     1.719000000     3.189000000    -2.533000000
C     0.317000000     2.144000000    -3.823000000
O    -0.704000000     2.996000000    -3.409000000
C    -1.750000000     2.463000000    -2.542000000
H    -1.343000000     1.609000000    -1.979000000
C    -2.101000000     3.438000000    -1.424000000
C    -3.428000000     3.509000000    -0.910000000
H    -4.146000000     2.852000000    -1.394000000
C    -1.121000000     4.290000000    -0.820000000
H    -0.107000000     4.105000000    -1.165000000
C    -1.445000000     5.187000000     0.185000000
O    -0.514000000     6.099000000     0.691000000
C    -2.764000000     5.319000000     0.529000000
H    -3.103000000     6.175000000     1.107000000
C    -3.725000000     4.476000000     0.051000000
O    -5.005000000     4.822000000     0.306000000
C    -6.039000000     3.902000000     0.488000000
C    -5.983000000     2.787000000     1.289000000
H    -5.035000000     2.416000000     1.670000000
C    -7.222000000     4.239000000    -0.111000000
H    -7.265000000     5.155000000    -0.694000000
C    -8.308000000     3.421000000    -0.095000000
H    -9.174000000     3.661000000    -0.707000000
C    -8.250000000     2.278000000     0.641000000
H    -9.102000000     1.606000000     0.573000000
C    -7.127000000     1.915000000     1.394000000
O    -7.111000000     0.587000000     1.934000000
C    -5.959000000    -0.155000000     2.002000000
C    -5.440000000    -0.606000000     3.275000000
H    -5.931000000    -0.298000000     4.195000000
C    -4.396000000    -1.460000000     3.317000000
O    -3.787000000    -1.901000000     4.495000000
C    -3.041000000    -3.061000000     4.632000000
C    -1.801000000    -2.766000000     5.050000000
H    -1.578000000    -1.727000000     5.277000000
C    -3.497000000    -4.318000000     4.266000000
H    -4.494000000    -4.472000000     3.859000000
C    -2.570000000    -5.389000000     4.354000000
H    -2.931000000    -6.360000000     4.027000000
C    -1.251000000    -5.079000000     4.638000000
H    -0.550000000    -5.910000000     4.679000000
C    -0.864000000    -3.758000000     5.068000000
O     0.452000000    -3.547000000     5.370000000
C     1.519000000    -3.549000000     4.460000000
C     2.776000000    -3.335000000     4.999000000
H     2.917000000    -3.135000000     6.057000000
C     3.905000000    -3.292000000     4.141000000
O     5.058000000    -2.786000000     4.665000000
C     5.745000000    -1.713000000     4.083000000
C     5.036000000    -0.504000000     3.958000000
H     3.972000000    -0.363000000     4.134000000
C     7.114000000    -1.791000000     3.702000000
H     7.530000000    -2.793000000     3.775000000
C     7.833000000    -0.660000000     3.235000000
H     8.870000000    -0.782000000     2.931000000
C     7.161000000     0.577000000     3.169000000
H     7.721000000     1.437000000     2.811000000
C     5.777000000     0.614000000     3.521000000
O     5.244000000     1.901000000     3.254000000
C     4.931000000     2.445000000     1.978000000
C     4.783000000     3.754000000     1.834000000
H     5.046000000     4.453000000     2.623000000
C     4.424000000     4.254000000     0.585000000
O     4.153000000     5.619000000     0.581000000
C     3.046000000     6.066000000    -0.050000000
C     3.141000000     6.971000000    -1.083000000
H     4.108000000     7.284000000    -1.470000000
C     1.935000000     7.575000000    -1.541000000
H     1.940000000     8.299000000    -2.352000000
C     0.698000000     7.241000000    -0.980000000
H    -0.260000000     7.671000000    -1.260000000
C     0.674000000     6.377000000     0.131000000
C     1.824000000     5.745000000     0.553000000
H     1.834000000     5.090000000     1.420000000
C     0.350000000     1.677000000     1.785000000
H     0.417000000     2.750000000     1.944000000
C     0.502000000     1.238000000     0.469000000
H     0.725000000     1.917000000    -0.349000000
C     0.216000000    -0.085000000     0.191000000
C     0.198000000    -0.631000000    -1.197000000
H    -0.708000000    -0.332000000    -1.728000000
H     0.997000000    -0.239000000    -1.830000000
H     0.324000000    -1.716000000    -1.210000000
C     0.039000000    -0.955000000     1.240000000
H    -0.010000000    -2.017000000     1.016000000
C    -0.002000000    -0.571000000     2.550000000
H    -0.241000000    -1.338000000     3.282000000
C     0.211000000     0.786000000     2.848000000
C    -0.048000000     1.291000000     4.245000000
O    -0.284000000     0.474000000     5.095000000
O    -0.216000000     2.469000000     4.410000000
O    -2.903000000     1.329000000     1.643000000
H    -3.024000000     0.387000000     1.767000000
H    -2.027000000     1.409000000     1.265000000
O    -1.003000000     3.526000000     6.853000000
H    -0.280000000     3.713000000     7.452000000
H    -0.581000000     3.149000000     6.080000000
O     5.076000000     1.780000000     6.355000000
H     4.356000000     2.115000000     6.890000000
H     4.805000000     1.955000000     5.453000000
O    -1.669000000     0.419000000     7.386000000
H    -1.275000000     0.327000000     6.518000000
H    -1.273000000     1.213000000     7.745000000
O    -4.285000000     0.128000000     6.981000000
H    -4.213000000    -0.448000000     6.220000000
H    -3.387000000     0.411000000     7.153000000
O    -2.215000000     5.658000000     4.012000000
H    -2.553000000     4.768000000     3.909000000
H    -1.264000000     5.552000000     4.025000000
O    -5.603000000     2.868000000     4.778000000
H    -5.621000000     3.798000000     5.004000000
H    -4.672000000     2.662000000     4.691000000
O     1.369000000    -0.916000000     6.866000000
H     0.937000000    -0.610000000     6.069000000
H     1.728000000    -0.123000000     7.265000000
O    -2.705000000     5.832000000     6.863000000
H    -2.497000000     4.909000000     6.718000000
H    -1.895000000     6.297000000     6.652000000
O    -3.314000000     3.804000000     9.183000000
H    -2.768000000     3.745000000     8.399000000
H    -4.171000000     4.081000000     8.858000000
O    -2.804000000     3.083000000     3.828000000
H    -2.836000000     2.544000000     3.037000000
H    -1.912000000     2.971000000     4.157000000
O     2.958000000     2.897000000     7.707000000
H     3.471000000     3.178000000     8.464000000
H     2.146000000     2.555000000     8.082000000
O     1.340000000     5.070000000     7.439000000
H     2.005000000     5.682000000     7.125000000
H     1.799000000     4.233000000     7.511000000
O    -0.354000000     7.171000000     7.233000000
H    -0.842000000     7.203000000     8.056000000
H     0.321000000     6.509000000     7.381000000
O     3.733000000    -0.478000000     8.147000000
H     4.627000000    -0.673000000     8.430000000
H     3.405000000    -1.308000000     7.800000000
O     1.720000000    -2.779000000     9.038000000
H     1.553000000    -1.986000000     8.528000000
H     1.873000000    -3.459000000     8.382000000
O     0.524000000     2.109000000     8.897000000
H     0.121000000     2.729000000     9.505000000
H     1.161000000     1.632000000     9.428000000
O    -1.560000000    -2.054000000     8.377000000
H    -1.768000000    -1.192000000     8.017000000
H    -0.621000000    -2.159000000     8.221000000
O     0.519000000     5.125000000     4.699000000
H     0.331000000     4.216000000     4.465000000
H     0.672000000     5.103000000     5.643000000
