218
-1446.52421
C    -4.160000000    -3.328000000     1.369000000
H    -3.810000000    -4.339000000     1.176000000
C    -4.019000000    -2.299000000     0.459000000
C    -4.392000000    -0.986000000     0.807000000
H    -4.162000000    -0.183000000     0.110000000
C    -3.333000000    -2.455000000    -0.890000000
O    -2.941000000    -3.843000000    -1.090000000
H    -2.441000000    -1.813000000    -0.839000000
O    -4.173000000    -1.987000000    -1.970000000
C    -3.523000000    -1.221000000    -2.910000000
C    -3.551000000     0.166000000    -2.745000000
H    -4.231000000     0.570000000    -1.999000000
C    -2.767000000     1.037000000    -3.440000000
O    -2.880000000     2.401000000    -3.254000000
C    -1.877000000     0.506000000    -4.387000000
C    -0.995000000     1.356000000    -5.326000000
H    -0.831000000     0.818000000    -6.262000000
C     0.254000000     1.756000000    -4.635000000
C     1.445000000     0.959000000    -4.725000000
H     1.508000000     0.106000000    -5.396000000
H    -1.505000000     2.273000000    -5.629000000
C    -1.716000000    -0.853000000    -4.525000000
H    -0.911000000    -1.203000000    -5.165000000
C    -2.509000000    -1.682000000    -3.769000000
C    -2.324000000    -3.204000000    -3.936000000
H    -1.972000000    -3.301000000    -4.966000000
H    -3.246000000    -3.787000000    -3.892000000
C    -1.350000000    -3.782000000    -2.925000000
C     0.008000000    -3.749000000    -3.285000000
H     0.326000000    -3.256000000    -4.200000000
C    -1.685000000    -4.161000000    -1.573000000
C    -0.768000000    -4.689000000    -0.709000000
H    -0.968000000    -4.968000000     0.323000000
C     0.567000000    -4.713000000    -1.109000000
O     1.528000000    -4.960000000    -0.136000000
C     2.311000000    -3.901000000     0.421000000
C     2.398000000    -3.878000000     1.937000000
C     3.638000000    -3.647000000     2.572000000
H     4.523000000    -3.400000000     1.990000000
C     1.229000000    -4.089000000     2.629000000
H     0.264000000    -4.130000000     2.129000000
O     3.547000000    -3.882000000    -0.233000000
H     1.700000000    -3.004000000     0.238000000
C     0.934000000    -4.274000000    -2.378000000
C     2.363000000    -4.245000000    -2.815000000
H     2.403000000    -4.313000000    -3.905000000
H     2.980000000    -5.035000000    -2.381000000
C     3.094000000    -2.928000000    -2.405000000
C     3.333000000    -1.952000000    -3.381000000
H     2.924000000    -2.023000000    -4.386000000
C     3.679000000    -2.827000000    -1.130000000
C     4.247000000    -1.631000000    -0.715000000
H     4.484000000    -1.557000000     0.343000000
C     4.205000000    -0.560000000    -1.604000000
O     4.600000000     0.669000000    -1.085000000
C     3.494000000     1.530000000    -0.921000000
C     3.625000000     2.245000000     0.399000000
C     4.218000000     1.577000000     1.477000000
H     4.726000000     0.641000000     1.258000000
C     3.047000000     3.452000000     0.658000000
H     2.620000000     4.082000000    -0.118000000
O     3.530000000     2.431000000    -2.082000000
H     2.630000000     0.851000000    -0.870000000
C     3.860000000    -0.712000000    -2.986000000
C     3.817000000     0.404000000    -4.060000000
H     3.850000000     0.019000000    -5.081000000
H     4.698000000     1.040000000    -3.952000000
C     2.586000000     1.266000000    -3.952000000
C     2.587000000     2.349000000    -3.056000000
C     1.383000000     3.059000000    -3.016000000
H     1.337000000     3.798000000    -2.220000000
C     0.258000000     2.847000000    -3.736000000
O    -0.860000000     3.540000000    -3.386000000
C    -1.902000000     3.125000000    -2.507000000
H    -1.331000000     2.436000000    -1.867000000
C    -2.465000000     4.259000000    -1.666000000
C    -3.786000000     4.187000000    -1.183000000
H    -4.376000000     3.302000000    -1.405000000
C    -1.681000000     5.398000000    -1.388000000
H    -0.738000000     5.535000000    -1.911000000
C    -2.168000000     6.378000000    -0.563000000
O    -1.317000000     7.347000000    -0.144000000
C    -3.456000000     6.288000000     0.020000000
H    -3.756000000     7.043000000     0.743000000
C    -4.266000000     5.117000000    -0.294000000
O    -5.519000000     5.042000000     0.231000000
C    -6.048000000     3.847000000     0.599000000
C    -5.259000000     2.895000000     1.292000000
H    -4.213000000     3.098000000     1.507000000
C    -7.415000000     3.578000000     0.410000000
H    -8.062000000     4.389000000     0.087000000
C    -8.013000000     2.380000000     0.785000000
H    -9.075000000     2.214000000     0.628000000
C    -7.192000000     1.365000000     1.398000000
H    -7.603000000     0.437000000     1.786000000
C    -5.807000000     1.624000000     1.648000000
O    -5.133000000     0.610000000     2.407000000
C    -4.846000000    -0.661000000     2.040000000
C    -5.090000000    -1.680000000     2.996000000
H    -5.561000000    -1.515000000     3.962000000
C    -4.750000000    -2.991000000     2.641000000
O    -4.627000000    -3.924000000     3.670000000
C    -3.529000000    -4.687000000     3.882000000
C    -2.319000000    -4.028000000     4.186000000
H    -2.294000000    -2.960000000     4.390000000
C    -3.565000000    -6.051000000     3.698000000
H    -4.514000000    -6.548000000     3.514000000
C    -2.394000000    -6.783000000     3.749000000
H    -2.279000000    -7.858000000     3.644000000
C    -1.159000000    -6.161000000     4.135000000
H    -0.247000000    -6.745000000     4.237000000
C    -1.144000000    -4.788000000     4.316000000
O    -0.035000000    -4.107000000     4.768000000
C     1.149000000    -4.016000000     4.027000000
C     2.384000000    -3.849000000     4.685000000
H     2.260000000    -3.878000000     5.765000000
C     3.570000000    -3.488000000     4.045000000
O     4.725000000    -3.093000000     4.677000000
C     5.328000000    -1.990000000     4.182000000
C     4.870000000    -0.668000000     4.287000000
H     3.844000000    -0.466000000     4.582000000
C     6.607000000    -2.224000000     3.814000000
H     7.049000000    -3.216000000     3.851000000
C     7.470000000    -1.236000000     3.398000000
H     8.504000000    -1.499000000     3.187000000
C     6.969000000     0.065000000     3.323000000
H     7.561000000     0.919000000     3.003000000
C     5.670000000     0.381000000     3.791000000
O     5.183000000     1.690000000     3.768000000
C     4.373000000     2.154000000     2.747000000
C     3.727000000     3.326000000     2.948000000
H     3.852000000     3.739000000     3.945000000
C     3.137000000     4.011000000     1.936000000
O     2.412000000     5.202000000     2.217000000
C     1.918000000     6.103000000     1.246000000
C     2.692000000     7.001000000     0.606000000
H     3.767000000     6.928000000     0.753000000
C     2.252000000     8.078000000    -0.160000000
H     2.995000000     8.765000000    -0.558000000
C     0.884000000     8.109000000    -0.530000000
H     0.521000000     8.919000000    -1.158000000
C     0.033000000     7.155000000     0.025000000
C     0.543000000     6.193000000     0.925000000
H    -0.114000000     5.478000000     1.413000000
C    -0.183000000     1.624000000     1.892000000
H    -0.327000000     2.668000000     2.161000000
C    -0.022000000     1.308000000     0.529000000
H     0.100000000     2.092000000    -0.213000000
C    -0.026000000    -0.012000000     0.164000000
C     0.169000000    -0.349000000    -1.355000000
H    -0.305000000     0.410000000    -1.981000000
H     1.230000000    -0.280000000    -1.607000000
H    -0.199000000    -1.361000000    -1.537000000
C    -0.095000000    -1.045000000     1.122000000
H    -0.083000000    -2.072000000     0.765000000
C    -0.271000000    -0.735000000     2.456000000
H    -0.413000000    -1.539000000     3.174000000
C    -0.350000000     0.626000000     2.878000000
C    -0.498000000     0.957000000     4.385000000
O    -0.951000000     0.208000000     5.212000000
O    -0.392000000     2.140000000     4.710000000
O    -2.708000000     2.732000000     5.770000000
H    -1.786000000     2.702000000     5.513000000
H    -2.971000000     1.814000000     5.826000000
O     3.666000000    -1.637000000     7.432000000
H     2.858000000    -1.494000000     6.939000000
H     4.297000000    -1.935000000     6.777000000
O    -0.083000000     1.069000000     7.875000000
H     0.352000000     0.271000000     8.176000000
H    -0.262000000     0.909000000     6.948000000
O    -5.327000000    -2.441000000     6.094000000
H    -4.602000000    -1.817000000     6.130000000
H    -6.092000000    -1.907000000     5.880000000
O     1.251000000    -1.519000000     6.458000000
H     0.507000000    -1.089000000     6.036000000
H     0.879000000    -2.305000000     6.858000000
O    -3.981000000     1.615000000     8.555000000
H    -3.808000000     1.987000000     9.420000000
H    -4.799000000     2.028000000     8.277000000
O    -2.967000000    -0.452000000     6.574000000
H    -2.155000000    -0.306000000     6.088000000
H    -3.157000000     0.393000000     6.982000000
O    -4.234000000     4.488000000     6.803000000
H    -3.741000000     3.693000000     6.601000000
H    -4.835000000     4.591000000     6.065000000
O    -3.591000000     5.144000000     3.518000000
H    -2.774000000     4.871000000     3.101000000
H    -4.060000000     4.326000000     3.682000000
O    -3.121000000    -2.258000000     8.619000000
H    -3.194000000    -1.703000000     9.396000000
H    -3.146000000    -1.646000000     7.884000000
O    -0.116000000     5.156000000     8.055000000
H    -0.786000000     5.339000000     7.395000000
H    -0.326000000     4.278000000     8.371000000
O     2.584000000     5.205000000     5.252000000
H     3.159000000     5.653000000     5.873000000
H     2.394000000     5.864000000     4.584000000
O    -1.294000000     3.009000000     9.192000000
H    -1.846000000     2.500000000     9.786000000
H    -0.798000000     2.352000000     8.703000000
O     2.404000000     2.129000000     8.729000000
H     1.603000000     2.225000000     8.213000000
H     3.089000000     2.512000000     8.181000000
O     5.058000000     1.850000000     6.621000000
H     5.346000000     2.047000000     5.730000000
H     4.118000000     1.688000000     6.539000000
O     0.272000000    -3.412000000     8.173000000
H     0.057000000    -4.215000000     8.646000000
H     0.196000000    -2.719000000     8.829000000
O    -0.619000000     4.636000000     4.115000000
H     0.111000000     5.035000000     4.587000000
H    -0.556000000     3.703000000     4.320000000
O    -1.990000000     6.365000000     6.373000000
H    -2.701000000     5.725000000     6.389000000
H    -1.742000000     6.424000000     5.450000000
O     2.270000000     2.305000000     6.051000000
H     2.386000000     3.219000000     5.791000000
H     1.448000000     2.041000000     5.639000000
