218
-1459.31720
C    -4.224000000    -3.379000000     1.812000000
H    -3.835000000    -4.381000000     1.651000000
C    -4.317000000    -2.501000000     0.742000000
C    -4.646000000    -1.157000000     1.039000000
H    -4.445000000    -0.354000000     0.335000000
C    -3.611000000    -2.790000000    -0.619000000
O    -3.136000000    -4.102000000    -0.740000000
H    -2.683000000    -2.200000000    -0.581000000
O    -4.347000000    -2.368000000    -1.833000000
C    -3.593000000    -1.581000000    -2.734000000
C    -3.640000000    -0.194000000    -2.632000000
H    -4.232000000     0.307000000    -1.870000000
C    -2.836000000     0.593000000    -3.477000000
O    -2.909000000     1.947000000    -3.343000000
C    -2.010000000    -0.043000000    -4.423000000
C    -1.141000000     0.811000000    -5.362000000
H    -0.888000000     0.317000000    -6.303000000
C     0.176000000     1.397000000    -4.774000000
C     1.335000000     0.599000000    -4.914000000
H     1.252000000    -0.383000000    -5.371000000
H    -1.737000000     1.692000000    -5.612000000
C    -1.912000000    -1.461000000    -4.451000000
H    -1.232000000    -1.945000000    -5.146000000
C    -2.694000000    -2.206000000    -3.570000000
C    -2.491000000    -3.720000000    -3.513000000
H    -2.248000000    -4.115000000    -4.502000000
H    -3.467000000    -4.144000000    -3.265000000
C    -1.465000000    -4.068000000    -2.477000000
C    -0.128000000    -4.102000000    -2.854000000
H     0.183000000    -4.096000000    -3.895000000
C    -1.835000000    -4.202000000    -1.178000000
C    -0.854000000    -4.384000000    -0.218000000
H    -1.240000000    -4.608000000     0.773000000
C     0.455000000    -4.363000000    -0.525000000
O     1.298000000    -4.485000000     0.526000000
C     2.035000000    -3.364000000     0.912000000
C     2.213000000    -3.214000000     2.449000000
C     3.445000000    -2.773000000     2.991000000
H     4.249000000    -2.458000000     2.330000000
C     1.168000000    -3.694000000     3.283000000
H     0.282000000    -4.187000000     2.891000000
O     3.320000000    -3.502000000     0.224000000
H     1.454000000    -2.526000000     0.501000000
C     0.863000000    -4.254000000    -1.893000000
C     2.347000000    -4.434000000    -2.284000000
H     2.311000000    -4.785000000    -3.318000000
H     2.742000000    -5.198000000    -1.610000000
C     3.074000000    -3.096000000    -2.145000000
C     3.149000000    -2.246000000    -3.246000000
H     2.757000000    -2.595000000    -4.198000000
C     3.471000000    -2.681000000    -0.883000000
C     4.047000000    -1.433000000    -0.775000000
H     4.337000000    -1.196000000     0.246000000
C     4.198000000    -0.615000000    -1.880000000
O     4.625000000     0.687000000    -1.723000000
C     3.659000000     1.680000000    -1.585000000
C     3.902000000     2.544000000    -0.330000000
C     4.680000000     2.038000000     0.663000000
H     5.326000000     1.187000000     0.463000000
C     3.194000000     3.763000000    -0.185000000
H     2.714000000     4.213000000    -1.051000000
O     3.661000000     2.488000000    -2.717000000
H     2.712000000     1.162000000    -1.370000000
C     3.664000000    -0.989000000    -3.127000000
C     3.702000000    -0.003000000    -4.342000000
H     3.851000000    -0.414000000    -5.343000000
H     4.609000000     0.587000000    -4.198000000
C     2.551000000     0.970000000    -4.298000000
C     2.553000000     2.192000000    -3.559000000
C     1.344000000     3.006000000    -3.445000000
H     1.275000000     3.773000000    -2.679000000
C     0.152000000     2.604000000    -4.029000000
O    -1.033000000     3.267000000    -3.681000000
C    -1.870000000     2.665000000    -2.717000000
H    -1.239000000     1.962000000    -2.152000000
C    -2.451000000     3.795000000    -1.828000000
C    -3.719000000     3.695000000    -1.220000000
H    -4.407000000     2.883000000    -1.440000000
C    -1.651000000     4.943000000    -1.501000000
H    -0.653000000     5.088000000    -1.906000000
C    -2.195000000     5.942000000    -0.713000000
O    -1.498000000     7.099000000    -0.552000000
C    -3.434000000     5.801000000    -0.161000000
H    -3.808000000     6.600000000     0.473000000
C    -4.171000000     4.711000000    -0.388000000
O    -5.452000000     4.605000000     0.210000000
C    -6.042000000     3.417000000     0.544000000
C    -5.460000000     2.563000000     1.492000000
H    -4.497000000     2.847000000     1.908000000
C    -7.366000000     3.242000000     0.173000000
H    -7.842000000     3.993000000    -0.453000000
C    -7.977000000     2.013000000     0.559000000
H    -8.945000000     1.714000000     0.164000000
C    -7.264000000     1.066000000     1.352000000
H    -7.741000000     0.115000000     1.571000000
C    -5.990000000     1.351000000     1.826000000
O    -5.137000000     0.598000000     2.663000000
C    -4.923000000    -0.716000000     2.378000000
C    -4.957000000    -1.656000000     3.409000000
H    -5.300000000    -1.371000000     4.400000000
C    -4.553000000    -2.982000000     3.090000000
O    -4.367000000    -3.859000000     4.185000000
C    -3.148000000    -4.513000000     4.433000000
C    -1.941000000    -3.847000000     4.832000000
H    -1.931000000    -2.760000000     4.844000000
C    -3.217000000    -5.908000000     4.571000000
H    -4.136000000    -6.433000000     4.321000000
C    -2.085000000    -6.587000000     5.037000000
H    -2.112000000    -7.673000000     5.009000000
C    -0.843000000    -5.944000000     5.271000000
H    -0.031000000    -6.547000000     5.668000000
C    -0.769000000    -4.566000000     5.164000000
O     0.358000000    -3.912000000     5.544000000
C     1.295000000    -3.419000000     4.632000000
C     2.428000000    -2.907000000     5.225000000
H     2.390000000    -2.627000000     6.275000000
C     3.475000000    -2.611000000     4.382000000
O     4.650000000    -1.968000000     4.889000000
C     5.425000000    -1.137000000     4.204000000
C     5.046000000     0.155000000     3.768000000
H     4.123000000     0.613000000     4.112000000
C     6.684000000    -1.588000000     3.926000000
H     7.049000000    -2.577000000     4.193000000
C     7.579000000    -0.788000000     3.151000000
H     8.582000000    -1.123000000     2.897000000
C     7.244000000     0.466000000     2.727000000
H     7.870000000     1.106000000     2.110000000
C     6.022000000     0.986000000     3.153000000
O     5.694000000     2.315000000     2.836000000
C     4.780000000     2.714000000     1.892000000
C     4.154000000     3.921000000     1.976000000
H     4.344000000     4.633000000     2.775000000
C     3.256000000     4.412000000     1.050000000
O     2.818000000     5.681000000     1.287000000
C     2.059000000     6.383000000     0.402000000
C     2.681000000     7.257000000    -0.424000000
H     3.767000000     7.272000000    -0.453000000
C     1.966000000     8.073000000    -1.219000000
H     2.546000000     8.741000000    -1.851000000
C     0.584000000     7.985000000    -1.228000000
H     0.040000000     8.552000000    -1.978000000
C    -0.117000000     7.133000000    -0.368000000
C     0.639000000     6.351000000     0.511000000
H     0.162000000     5.754000000     1.284000000
C     0.321000000     1.561000000     1.998000000
H     0.631000000     2.567000000     2.268000000
C     0.307000000     1.171000000     0.620000000
H     0.459000000     1.966000000    -0.105000000
C     0.006000000    -0.134000000     0.248000000
C    -0.278000000    -0.552000000    -1.147000000
H     0.168000000     0.226000000    -1.769000000
H     0.145000000    -1.518000000    -1.432000000
H    -1.343000000    -0.550000000    -1.388000000
C    -0.284000000    -1.052000000     1.308000000
H    -0.670000000    -2.039000000     1.069000000
C    -0.276000000    -0.659000000     2.656000000
H    -0.480000000    -1.366000000     3.457000000
C     0.035000000     0.644000000     2.998000000
C     0.069000000     1.145000000     4.435000000
O    -0.106000000     0.450000000     5.397000000
O     0.295000000     2.314000000     4.697000000
O    -2.498000000     2.928000000     5.037000000
H    -2.619000000     2.374000000     5.808000000
H    -1.650000000     2.664000000     4.682000000
O     4.622000000    -0.331000000     7.874000000
H     3.957000000    -0.150000000     7.210000000
H     4.217000000    -0.982000000     8.447000000
O     4.411000000     5.505000000     5.748000000
H     4.335000000     6.316000000     5.246000000
H     3.507000000     5.222000000     5.884000000
O    -0.115000000     3.631000000     7.055000000
H     0.018000000     4.497000000     6.668000000
H     0.135000000     3.019000000     6.363000000
O     2.123000000     0.087000000     6.867000000
H     1.383000000     0.103000000     6.260000000
H     1.735000000     0.276000000     7.722000000
O    -2.084000000     0.044000000     7.057000000
H    -1.453000000    -0.109000000     6.354000000
H    -1.638000000     0.645000000     7.653000000
O    -4.432000000    -0.219000000     7.999000000
H    -5.083000000    -0.078000000     7.312000000
H    -3.591000000    -0.167000000     7.546000000
O     2.663000000     0.331000000    10.586000000
H     3.377000000     0.968000000    10.545000000
H     2.069000000     0.591000000     9.883000000
O    -1.751000000     5.027000000     3.122000000
H    -0.800000000     5.024000000     3.232000000
H    -2.087000000     4.647000000     3.934000000
O    -2.317000000     2.055000000     9.418000000
H    -2.206000000     2.623000000    10.180000000
H    -2.820000000     2.583000000     8.798000000
O     0.427000000     1.338000000     8.964000000
H     0.012000000     1.356000000     9.827000000
H    -0.085000000     1.954000000     8.440000000
O    -1.815000000     5.211000000     8.419000000
H    -2.682000000     4.877000000     8.189000000
H    -1.206000000     4.584000000     8.030000000
O     0.721000000     6.225000000     7.268000000
H     0.247000000     6.066000000     8.084000000
H     1.597000000     5.873000000     7.427000000
O     5.427000000     2.985000000     6.017000000
H     5.733000000     3.770000000     5.562000000
H     4.474000000     3.074000000     6.033000000
O    -4.683000000     5.350000000     3.340000000
H    -4.082000000     4.974000000     2.697000000
H    -5.547000000     5.036000000     3.073000000
O    -2.213000000    -2.945000000     8.129000000
H    -1.783000000    -3.558000000     8.724000000
H    -1.804000000    -2.100000000     8.317000000
O     1.186000000     4.771000000     3.717000000
H     1.971000000     4.691000000     3.176000000
H     0.992000000     3.874000000     3.991000000
O    -1.275000000     7.077000000     5.341000000
H    -0.448000000     6.807000000     5.739000000
H    -1.583000000     7.797000000     5.892000000
O     2.730000000     2.787000000     5.922000000
H     2.648000000     1.866000000     6.172000000
H     1.886000000     3.004000000     5.527000000
