218
-1461.38211
C    -3.870000000    -3.423000000     0.688000000
H    -3.387000000    -4.359000000     0.417000000
C    -3.803000000    -2.307000000    -0.104000000
C    -4.452000000    -1.105000000     0.217000000
H    -4.343000000    -0.240000000    -0.434000000
C    -2.958000000    -2.446000000    -1.434000000
O    -2.634000000    -3.815000000    -1.787000000
H    -2.078000000    -1.786000000    -1.423000000
O    -3.724000000    -1.933000000    -2.510000000
C    -3.110000000    -0.957000000    -3.303000000
C    -3.448000000     0.371000000    -3.155000000
H    -4.258000000     0.715000000    -2.517000000
C    -2.641000000     1.330000000    -3.753000000
O    -2.811000000     2.657000000    -3.407000000
C    -1.538000000     0.898000000    -4.495000000
C    -0.649000000     1.840000000    -5.192000000
H    -0.250000000     1.463000000    -6.136000000
C     0.476000000     2.181000000    -4.277000000
C     1.728000000     1.470000000    -4.406000000
H     1.784000000     0.770000000    -5.235000000
H    -1.143000000     2.791000000    -5.403000000
C    -1.341000000    -0.446000000    -4.785000000
H    -0.473000000    -0.708000000    -5.383000000
C    -2.133000000    -1.402000000    -4.223000000
C    -1.827000000    -2.857000000    -4.468000000
H    -1.408000000    -2.861000000    -5.476000000
H    -2.709000000    -3.499000000    -4.498000000
C    -0.857000000    -3.392000000    -3.422000000
C     0.525000000    -3.436000000    -3.709000000
H     0.852000000    -3.040000000    -4.667000000
C    -1.303000000    -3.934000000    -2.180000000
C    -0.425000000    -4.501000000    -1.294000000
H    -0.724000000    -4.966000000    -0.359000000
C     0.944000000    -4.482000000    -1.600000000
O     1.812000000    -4.779000000    -0.546000000
C     2.308000000    -3.706000000     0.241000000
C     2.057000000    -3.733000000     1.696000000
C     2.649000000    -2.808000000     2.626000000
H     3.241000000    -2.002000000     2.201000000
C     1.228000000    -4.719000000     2.177000000
H     0.832000000    -5.488000000     1.520000000
O     3.672000000    -3.410000000    -0.112000000
H     1.718000000    -2.820000000    -0.037000000
C     1.428000000    -3.975000000    -2.807000000
C     2.935000000    -3.821000000    -3.039000000
H     3.106000000    -3.910000000    -4.114000000
H     3.461000000    -4.688000000    -2.636000000
C     3.532000000    -2.579000000    -2.434000000
C     3.630000000    -1.410000000    -3.218000000
H     3.443000000    -1.402000000    -4.289000000
C     3.787000000    -2.424000000    -1.063000000
C     4.215000000    -1.205000000    -0.500000000
H     4.389000000    -1.139000000     0.571000000
C     4.353000000    -0.045000000    -1.316000000
O     4.854000000     1.101000000    -0.743000000
C     3.710000000     1.986000000    -0.396000000
C     3.960000000     2.743000000     0.923000000
C     4.651000000     2.041000000     1.892000000
H     4.923000000     1.001000000     1.734000000
C     3.505000000     4.018000000     1.145000000
H     2.882000000     4.428000000     0.353000000
O     3.531000000     2.891000000    -1.511000000
H     2.778000000     1.411000000    -0.294000000
C     4.052000000    -0.184000000    -2.698000000
C     4.169000000     1.023000000    -3.572000000
H     4.417000000     0.746000000    -4.599000000
H     4.973000000     1.696000000    -3.267000000
C     2.832000000     1.737000000    -3.519000000
C     2.631000000     2.624000000    -2.473000000
C     1.408000000     3.378000000    -2.372000000
H     1.315000000     4.203000000    -1.669000000
C     0.426000000     3.153000000    -3.303000000
O    -0.750000000     3.845000000    -3.168000000
C    -1.814000000     3.191000000    -2.475000000
H    -1.358000000     2.373000000    -1.899000000
C    -2.387000000     4.103000000    -1.330000000
C    -3.747000000     4.151000000    -1.096000000
H    -4.481000000     3.461000000    -1.502000000
C    -1.576000000     4.805000000    -0.418000000
H    -0.505000000     4.795000000    -0.600000000
C    -2.087000000     5.517000000     0.671000000
O    -1.287000000     6.239000000     1.537000000
C    -3.506000000     5.534000000     0.787000000
H    -3.981000000     6.044000000     1.622000000
C    -4.265000000     4.802000000     0.027000000
O    -5.584000000     4.669000000     0.368000000
C    -6.120000000     3.413000000     0.489000000
C    -5.644000000     2.458000000     1.373000000
H    -4.910000000     2.745000000     2.122000000
C    -7.198000000     3.101000000    -0.303000000
H    -7.581000000     3.878000000    -0.960000000
C    -7.687000000     1.831000000    -0.363000000
H    -8.530000000     1.664000000    -1.030000000
C    -7.139000000     0.815000000     0.417000000
H    -7.592000000    -0.169000000     0.329000000
C    -6.087000000     1.158000000     1.246000000
O    -5.584000000     0.088000000     2.011000000
C    -5.068000000    -1.035000000     1.516000000
C    -5.066000000    -2.154000000     2.335000000
H    -5.702000000    -2.145000000     3.217000000
C    -4.487000000    -3.381000000     1.938000000
O    -4.438000000    -4.394000000     2.844000000
C    -3.563000000    -5.433000000     2.993000000
C    -2.235000000    -5.150000000     3.329000000
H    -2.004000000    -4.088000000     3.350000000
C    -3.946000000    -6.803000000     2.878000000
H    -4.943000000    -7.100000000     2.563000000
C    -2.969000000    -7.776000000     3.053000000
H    -3.228000000    -8.821000000     2.901000000
C    -1.649000000    -7.465000000     3.435000000
H    -0.872000000    -8.225000000     3.421000000
C    -1.282000000    -6.150000000     3.582000000
O     0.018000000    -5.849000000     3.910000000
C     0.817000000    -4.792000000     3.492000000
C     1.320000000    -3.807000000     4.363000000
H     1.036000000    -3.906000000     5.407000000
C     2.229000000    -2.793000000     3.999000000
O     2.698000000    -1.836000000     4.944000000
C     3.951000000    -1.325000000     4.880000000
C     4.044000000     0.033000000     4.636000000
H     3.149000000     0.642000000     4.540000000
C     5.059000000    -2.162000000     4.837000000
H     5.044000000    -3.247000000     4.897000000
C     6.316000000    -1.611000000     4.572000000
H     7.228000000    -2.192000000     4.465000000
C     6.480000000    -0.227000000     4.406000000
H     7.361000000     0.342000000     4.119000000
C     5.296000000     0.565000000     4.484000000
O     5.450000000     1.862000000     4.204000000
C     4.847000000     2.572000000     3.183000000
C     4.365000000     3.797000000     3.457000000
H     4.451000000     4.173000000     4.473000000
C     3.695000000     4.531000000     2.492000000
O     3.144000000     5.712000000     2.793000000
C     2.302000000     6.378000000     1.969000000
C     2.676000000     7.258000000     1.005000000
H     3.733000000     7.437000000     0.828000000
C     1.734000000     7.784000000     0.114000000
H     2.043000000     8.344000000    -0.765000000
C     0.349000000     7.493000000     0.334000000
H    -0.402000000     7.842000000    -0.369000000
C    -0.033000000     6.593000000     1.296000000
C     0.938000000     5.997000000     2.073000000
H     0.666000000     5.426000000     2.957000000
C     0.145000000     1.072000000     2.141000000
H     0.370000000     2.020000000     2.624000000
C     0.371000000     1.016000000     0.797000000
H     0.762000000     1.881000000     0.267000000
C     0.054000000    -0.174000000     0.084000000
C     0.453000000    -0.185000000    -1.347000000
H     0.409000000    -1.206000000    -1.731000000
H    -0.150000000     0.390000000    -2.052000000
H     1.509000000     0.094000000    -1.347000000
C    -0.301000000    -1.266000000     0.786000000
H    -0.433000000    -2.235000000     0.312000000
C    -0.485000000    -1.208000000     2.170000000
H    -0.817000000    -2.051000000     2.771000000
C    -0.323000000     0.028000000     2.889000000
C    -0.478000000     0.158000000     4.379000000
O    -0.921000000    -0.830000000     4.986000000
O    -0.154000000     1.216000000     4.837000000
O    -3.163000000     4.072000000     8.070000000
H    -3.420000000     3.420000000     7.418000000
H    -2.595000000     3.595000000     8.675000000
O    -2.098000000     2.238000000     6.151000000
H    -2.181000000     1.443000000     6.677000000
H    -1.349000000     2.070000000     5.579000000
O    -6.169000000     1.894000000     6.922000000
H    -6.248000000     0.948000000     6.803000000
H    -6.577000000     2.269000000     6.142000000
O     0.372000000    -1.354000000     7.250000000
H    -0.055000000    -1.113000000     6.427000000
H     0.919000000    -2.106000000     7.024000000
O    -3.182000000    -2.217000000     5.290000000
H    -3.445000000    -2.669000000     4.488000000
H    -2.596000000    -1.521000000     4.991000000
O    -1.602000000    -1.311000000     9.017000000
H    -1.293000000    -1.130000000     9.904000000
H    -0.817000000    -1.246000000     8.472000000
O    -2.839000000     4.754000000     5.037000000
H    -1.964000000     4.926000000     4.688000000
H    -2.759000000     3.911000000     5.482000000
O    -1.378000000    -3.738000000     7.418000000
H    -1.390000000    -3.080000000     8.112000000
H    -1.821000000    -3.317000000     6.681000000
O     1.095000000     5.475000000     9.072000000
H     0.361000000     6.051000000     8.855000000
H     1.051000000     4.775000000     8.421000000
O     0.573000000     3.513000000     7.143000000
H    -0.246000000     3.042000000     6.992000000
H     1.255000000     2.852000000     7.022000000
O    -1.077000000     1.434000000     9.225000000
H    -1.687000000     0.927000000     9.760000000
H    -0.312000000     0.866000000     9.132000000
O     4.485000000     1.760000000     7.628000000
H     3.869000000     1.544000000     6.928000000
H     4.981000000     2.505000000     7.289000000
O    -5.263000000     4.906000000     3.573000000
H    -5.774000000     4.451000000     4.242000000
H    -4.361000000     4.866000000     3.892000000
O    -4.050000000    -5.996000000     6.094000000
H    -3.507000000    -5.215000000     6.206000000
H    -4.807000000    -5.692000000     5.594000000
O     1.196000000    -5.106000000     7.566000000
H     0.320000000    -4.827000000     7.300000000
H     1.047000000    -5.672000000     8.323000000
O     0.068000000     5.873000000     5.510000000
H     0.945000000     6.255000000     5.462000000
H     0.091000000     5.318000000     6.290000000
O     1.671000000     1.068000000     6.571000000
H     1.386000000     0.277000000     7.028000000
H     1.125000000     1.101000000     5.785000000
O    -3.974000000    -1.955000000     7.980000000
H    -3.289000000    -1.600000000     8.546000000
H    -3.681000000    -1.751000000     7.092000000
O     0.942000000     2.752000000    10.859000000
H     0.593000000     3.240000000    11.604000000
H     0.170000000     2.506000000    10.350000000
