218
-1468.80677
C    -4.145000000    -2.681000000     1.522000000
H    -3.833000000    -3.722000000     1.529000000
C    -4.055000000    -1.877000000     0.417000000
C    -4.515000000    -0.581000000     0.534000000
H    -4.501000000     0.170000000    -0.252000000
C    -3.309000000    -2.303000000    -0.846000000
O    -3.062000000    -3.735000000    -0.832000000
H    -2.368000000    -1.748000000    -0.722000000
O    -3.946000000    -1.913000000    -2.045000000
C    -3.153000000    -1.455000000    -3.035000000
C    -3.320000000    -0.114000000    -3.334000000
H    -3.997000000     0.534000000    -2.784000000
C    -2.412000000     0.425000000    -4.201000000
O    -2.434000000     1.817000000    -4.223000000
C    -1.521000000    -0.286000000    -5.002000000
C    -0.392000000     0.397000000    -5.693000000
H    -0.002000000    -0.357000000    -6.379000000
C     0.773000000     0.876000000    -4.804000000
C     1.906000000     0.074000000    -4.659000000
H     1.887000000    -0.964000000    -4.982000000
H    -0.786000000     1.284000000    -6.194000000
C    -1.380000000    -1.650000000    -4.722000000
H    -0.643000000    -2.251000000    -5.248000000
C    -2.277000000    -2.238000000    -3.781000000
C    -2.212000000    -3.741000000    -3.617000000
H    -1.974000000    -4.219000000    -4.569000000
H    -3.240000000    -4.059000000    -3.428000000
C    -1.315000000    -4.117000000    -2.420000000
C     0.084000000    -4.311000000    -2.567000000
H     0.593000000    -4.123000000    -3.509000000
C    -1.829000000    -4.193000000    -1.085000000
C    -1.013000000    -4.558000000    -0.060000000
H    -1.416000000    -4.511000000     0.948000000
C     0.346000000    -4.640000000    -0.216000000
O     1.156000000    -4.655000000     0.897000000
C     1.859000000    -3.513000000     1.342000000
C     1.784000000    -3.260000000     2.801000000
C     2.755000000    -2.435000000     3.431000000
H     3.543000000    -1.928000000     2.880000000
C     0.816000000    -3.889000000     3.534000000
H     0.170000000    -4.630000000     3.071000000
O     3.235000000    -3.592000000     0.962000000
H     1.418000000    -2.643000000     0.834000000
C     0.898000000    -4.538000000    -1.490000000
C     2.362000000    -4.723000000    -1.669000000
H     2.472000000    -5.058000000    -2.702000000
H     2.817000000    -5.495000000    -1.044000000
C     3.072000000    -3.427000000    -1.472000000
C     3.202000000    -2.482000000    -2.535000000
H     2.764000000    -2.705000000    -3.504000000
C     3.548000000    -2.978000000    -0.253000000
C     4.149000000    -1.726000000    -0.130000000
H     4.476000000    -1.316000000     0.822000000
C     4.381000000    -0.880000000    -1.185000000
O     4.820000000     0.350000000    -0.952000000
C     3.796000000     1.419000000    -0.953000000
C     4.023000000     2.361000000     0.269000000
C     4.825000000     2.023000000     1.381000000
H     5.509000000     1.178000000     1.404000000
C     3.247000000     3.547000000     0.311000000
H     2.690000000     3.916000000    -0.546000000
O     3.753000000     2.116000000    -2.205000000
H     2.807000000     0.946000000    -0.859000000
C     3.938000000    -1.275000000    -2.507000000
C     4.151000000    -0.443000000    -3.676000000
H     4.347000000    -1.093000000    -4.531000000
H     5.092000000     0.080000000    -3.491000000
C     2.989000000     0.522000000    -3.865000000
C     2.856000000     1.689000000    -3.175000000
C     1.810000000     2.566000000    -3.370000000
H     1.742000000     3.531000000    -2.873000000
C     0.725000000     2.160000000    -4.186000000
O    -0.453000000     2.871000000    -4.191000000
C    -1.560000000     2.455000000    -3.357000000
H    -1.307000000     1.724000000    -2.575000000
C    -2.157000000     3.719000000    -2.752000000
C    -3.520000000     3.705000000    -2.267000000
H    -4.236000000     2.907000000    -2.445000000
C    -1.360000000     4.881000000    -2.574000000
H    -0.346000000     4.908000000    -2.966000000
C    -1.876000000     5.859000000    -1.762000000
O    -1.046000000     6.955000000    -1.576000000
C    -3.153000000     5.900000000    -1.294000000
H    -3.560000000     6.799000000    -0.838000000
C    -4.026000000     4.771000000    -1.561000000
O    -5.333000000     4.808000000    -1.147000000
C    -5.958000000     3.785000000    -0.414000000
C    -5.239000000     2.977000000     0.467000000
H    -4.167000000     3.095000000     0.603000000
C    -7.322000000     3.642000000    -0.614000000
H    -7.796000000     4.349000000    -1.290000000
C    -7.943000000     2.624000000     0.157000000
H    -9.024000000     2.526000000     0.215000000
C    -7.247000000     1.788000000     0.984000000
H    -7.842000000     0.962000000     1.362000000
C    -5.912000000     1.984000000     1.223000000
O    -5.148000000     1.219000000     2.011000000
C    -4.903000000    -0.118000000     1.794000000
C    -4.937000000    -0.990000000     2.866000000
H    -5.166000000    -0.551000000     3.834000000
C    -4.545000000    -2.284000000     2.769000000
O    -4.692000000    -3.119000000     3.860000000
C    -3.727000000    -4.064000000     4.319000000
C    -2.460000000    -3.646000000     4.726000000
H    -2.252000000    -2.580000000     4.773000000
C    -3.990000000    -5.464000000     4.388000000
H    -5.028000000    -5.723000000     4.200000000
C    -3.044000000    -6.409000000     4.759000000
H    -3.374000000    -7.429000000     4.940000000
C    -1.791000000    -6.022000000     5.185000000
H    -1.006000000    -6.663000000     5.577000000
C    -1.542000000    -4.597000000     5.193000000
O    -0.374000000    -4.131000000     5.659000000
C     0.648000000    -3.622000000     4.940000000
C     1.500000000    -2.755000000     5.563000000
H     1.305000000    -2.450000000     6.588000000
C     2.555000000    -2.181000000     4.822000000
O     3.435000000    -1.374000000     5.502000000
C     4.514000000    -0.848000000     4.853000000
C     4.493000000     0.512000000     4.402000000
H     3.569000000     1.047000000     4.608000000
C     5.629000000    -1.648000000     4.594000000
H     5.504000000    -2.688000000     4.884000000
C     6.821000000    -1.075000000     4.109000000
H     7.680000000    -1.708000000     3.904000000
C     6.799000000     0.267000000     3.735000000
H     7.713000000     0.739000000     3.384000000
C     5.631000000     1.050000000     3.875000000
O     5.586000000     2.351000000     3.580000000
C     4.799000000     2.835000000     2.573000000
C     4.031000000     4.002000000     2.616000000
H     3.924000000     4.513000000     3.570000000
C     3.299000000     4.346000000     1.491000000
O     2.446000000     5.403000000     1.562000000
C     1.990000000     6.197000000     0.452000000
C     2.900000000     6.938000000    -0.208000000
H     3.958000000     6.808000000     0.005000000
C     2.613000000     7.680000000    -1.357000000
H     3.332000000     8.310000000    -1.874000000
C     1.270000000     7.756000000    -1.798000000
H     0.966000000     8.380000000    -2.634000000
C     0.299000000     6.993000000    -1.127000000
C     0.662000000     6.266000000     0.044000000
H    -0.060000000     5.635000000     0.556000000
C    -0.686000000     2.055000000     1.025000000
H    -0.437000000     3.092000000     1.235000000
C    -0.100000000     1.252000000    -0.006000000
H     0.285000000     1.745000000    -0.895000000
C    -0.225000000    -0.147000000     0.092000000
C     0.341000000    -0.935000000    -1.100000000
H    -0.376000000    -0.605000000    -1.855000000
H     1.307000000    -0.615000000    -1.498000000
H     0.298000000    -2.020000000    -0.989000000
C    -0.891000000    -0.747000000     1.121000000
H    -0.965000000    -1.826000000     1.231000000
C    -1.354000000     0.069000000     2.188000000
H    -1.793000000    -0.442000000     3.041000000
C    -1.369000000     1.430000000     2.110000000
C    -1.956000000     2.171000000     3.206000000
O    -1.772000000     1.737000000     4.312000000
O    -2.520000000     3.218000000     3.003000000
O    -0.424000000     0.152000000     8.114000000
H     0.397000000     0.605000000     8.305000000
H    -0.356000000    -0.088000000     7.190000000
O    -4.178000000    -1.939000000     6.772000000
H    -4.753000000    -1.472000000     7.378000000
H    -3.949000000    -1.287000000     6.109000000
O    -8.371000000     2.027000000     4.158000000
H    -7.636000000     1.812000000     4.731000000
H    -9.093000000     1.489000000     4.482000000
O    -6.225000000     1.195000000     5.814000000
H    -5.988000000     1.441000000     6.709000000
H    -5.562000000     1.615000000     5.266000000
O    -3.983000000     2.678000000     7.481000000
H    -3.257000000     3.254000000     7.722000000
H    -4.142000000     2.866000000     6.556000000
O     2.247000000     0.989000000     7.524000000
H     2.337000000     1.147000000     6.584000000
H     2.242000000     1.863000000     7.914000000
O    -4.737000000     6.130000000     7.211000000
H    -3.985000000     5.646000000     7.551000000
H    -5.203000000     5.497000000     6.665000000
O    -7.037000000     4.592000000     3.435000000
H    -6.771000000     4.599000000     2.516000000
H    -7.402000000     3.718000000     3.573000000
O     3.261000000     4.673000000     6.329000000
H     2.332000000     4.486000000     6.462000000
H     3.700000000     3.839000000     6.500000000
O    -1.588000000     4.625000000     5.431000000
H    -2.005000000     4.172000000     4.698000000
H    -0.663000000     4.390000000     5.363000000
O    -1.092000000     7.209000000     5.495000000
H    -1.649000000     6.465000000     5.267000000
H    -0.677000000     6.954000000     6.319000000
O    -3.310000000     0.117000000     9.018000000
H    -3.582000000     0.962000000     8.660000000
H    -2.356000000     0.177000000     9.073000000
O    -3.286000000     0.147000000     5.713000000
H    -3.695000000     0.782000000     6.301000000
H    -2.785000000     0.680000000     5.096000000
O    -4.595000000     3.202000000     4.789000000
H    -4.717000000     4.115000000     4.527000000
H    -4.042000000     2.828000000     4.103000000
O    -3.433000000     5.679000000     3.444000000
H    -3.686000000     6.244000000     2.713000000
H    -3.156000000     4.862000000     3.030000000
O     0.669000000     1.184000000     5.051000000
H     0.923000000     0.926000000     4.165000000
H    -0.246000000     1.453000000     4.970000000
O    -1.205000000     8.594000000     2.865000000
H    -1.873000000     7.948000000     2.636000000
H    -1.061000000     8.468000000     3.803000000
O    -2.407000000     4.812000000     8.098000000
H    -2.064000000     4.633000000     7.223000000
H    -1.673000000     5.209000000     8.567000000
O     0.785000000     3.531000000     6.464000000
H     0.810000000     2.799000000     5.848000000
H     0.274000000     3.204000000     7.204000000
