218
-1462.82322
C    -3.770000000    -3.345000000     1.230000000
H    -3.382000000    -4.230000000     0.733000000
C    -3.798000000    -2.195000000     0.474000000
C    -4.200000000    -0.996000000     1.052000000
H    -4.216000000    -0.033000000     0.548000000
C    -3.442000000    -2.132000000    -0.980000000
O    -3.308000000    -3.425000000    -1.552000000
H    -2.479000000    -1.603000000    -1.041000000
O    -4.416000000    -1.281000000    -1.680000000
C    -3.897000000    -0.350000000    -2.505000000
C    -3.811000000     0.990000000    -2.128000000
H    -4.292000000     1.307000000    -1.206000000
C    -3.154000000     1.989000000    -2.816000000
O    -3.174000000     3.273000000    -2.365000000
C    -2.457000000     1.594000000    -3.948000000
C    -1.642000000     2.614000000    -4.746000000
H    -1.670000000     2.250000000    -5.775000000
C    -0.267000000     2.756000000    -4.099000000
C     0.845000000     2.086000000    -4.597000000
H     0.780000000     1.443000000    -5.471000000
H    -2.213000000     3.545000000    -4.747000000
C    -2.478000000     0.309000000    -4.459000000
H    -1.889000000     0.049000000    -5.335000000
C    -3.173000000    -0.682000000    -3.716000000
C    -3.001000000    -2.100000000    -4.267000000
H    -2.763000000    -2.079000000    -5.333000000
H    -3.988000000    -2.566000000    -4.225000000
C    -1.911000000    -2.908000000    -3.464000000
C    -0.639000000    -3.062000000    -4.043000000
H    -0.400000000    -2.657000000    -5.023000000
C    -2.196000000    -3.591000000    -2.231000000
C    -1.106000000    -4.300000000    -1.568000000
H    -1.257000000    -4.697000000    -0.567000000
C     0.243000000    -4.308000000    -2.091000000
O     1.226000000    -4.859000000    -1.276000000
C     2.036000000    -3.858000000    -0.589000000
C     2.413000000    -4.396000000     0.809000000
C     3.634000000    -4.056000000     1.415000000
H     4.420000000    -3.481000000     0.933000000
C     1.353000000    -4.993000000     1.565000000
H     0.359000000    -5.148000000     1.154000000
O     3.234000000    -3.568000000    -1.357000000
H     1.397000000    -2.978000000    -0.424000000
C     0.427000000    -3.737000000    -3.403000000
C     1.807000000    -3.619000000    -3.985000000
H     1.752000000    -3.531000000    -5.072000000
H     2.345000000    -4.563000000    -3.875000000
C     2.528000000    -2.409000000    -3.375000000
C     2.628000000    -1.151000000    -4.038000000
H     2.213000000    -1.108000000    -5.042000000
C     3.156000000    -2.471000000    -2.114000000
C     3.831000000    -1.366000000    -1.544000000
H     4.280000000    -1.435000000    -0.557000000
C     3.842000000    -0.140000000    -2.236000000
O     4.366000000     0.962000000    -1.626000000
C     3.436000000     1.924000000    -1.044000000
C     3.839000000     2.224000000     0.349000000
C     4.598000000     1.300000000     1.091000000
H     4.971000000     0.367000000     0.678000000
C     3.353000000     3.385000000     0.966000000
H     2.735000000     4.058000000     0.377000000
O     3.324000000     3.035000000    -1.987000000
H     2.470000000     1.398000000    -1.037000000
C     3.294000000    -0.078000000    -3.494000000
C     3.328000000     1.344000000    -4.212000000
H     3.437000000     1.226000000    -5.292000000
H     4.232000000     1.898000000    -3.949000000
C     2.067000000     2.192000000    -3.887000000
C     2.226000000     3.035000000    -2.805000000
C     1.089000000     3.776000000    -2.365000000
H     1.207000000     4.596000000    -1.661000000
C    -0.174000000     3.610000000    -2.950000000
O    -1.163000000     4.385000000    -2.437000000
C    -2.083000000     3.714000000    -1.553000000
H    -1.664000000     2.735000000    -1.276000000
C    -2.405000000     4.476000000    -0.318000000
C    -3.687000000     4.385000000     0.248000000
H    -4.442000000     3.703000000    -0.136000000
C    -1.478000000     5.335000000     0.332000000
H    -0.413000000     5.270000000     0.123000000
C    -1.890000000     6.050000000     1.452000000
O    -1.048000000     6.758000000     2.260000000
C    -3.182000000     5.981000000     1.929000000
H    -3.359000000     6.502000000     2.867000000
C    -4.089000000     5.121000000     1.295000000
O    -5.359000000     4.870000000     1.902000000
C    -5.819000000     3.568000000     2.002000000
C    -5.029000000     2.466000000     2.284000000
H    -3.961000000     2.591000000     2.438000000
C    -7.231000000     3.413000000     1.927000000
H    -7.898000000     4.217000000     1.627000000
C    -7.837000000     2.208000000     2.325000000
H    -8.913000000     2.093000000     2.436000000
C    -6.946000000     1.143000000     2.442000000
H    -7.322000000     0.145000000     2.652000000
C    -5.565000000     1.274000000     2.638000000
O    -4.728000000     0.239000000     3.107000000
C    -4.492000000    -0.966000000     2.442000000
C    -4.494000000    -2.168000000     3.196000000
H    -4.721000000    -2.083000000     4.256000000
C    -4.142000000    -3.338000000     2.538000000
O    -4.021000000    -4.478000000     3.336000000
C    -2.942000000    -5.393000000     3.158000000
C    -1.682000000    -5.041000000     3.640000000
H    -1.527000000    -4.126000000     4.207000000
C    -3.257000000    -6.594000000     2.531000000
H    -4.320000000    -6.775000000     2.400000000
C    -2.167000000    -7.471000000     2.216000000
H    -2.380000000    -8.398000000     1.691000000
C    -0.866000000    -7.063000000     2.642000000
H     0.027000000    -7.621000000     2.375000000
C    -0.660000000    -5.976000000     3.435000000
O     0.620000000    -5.630000000     3.813000000
C     1.591000000    -5.245000000     2.927000000
C     2.817000000    -5.027000000     3.493000000
H     2.924000000    -5.125000000     4.570000000
C     3.850000000    -4.491000000     2.705000000
O     5.050000000    -4.164000000     3.336000000
C     5.827000000    -3.037000000     3.078000000
C     5.332000000    -1.725000000     3.238000000
H     4.321000000    -1.589000000     3.613000000
C     7.080000000    -3.277000000     2.649000000
H     7.514000000    -4.271000000     2.587000000
C     7.794000000    -2.183000000     2.078000000
H     8.765000000    -2.318000000     1.609000000
C     7.243000000    -0.867000000     2.120000000
H     7.797000000    -0.076000000     1.621000000
C     6.060000000    -0.625000000     2.762000000
O     5.642000000     0.620000000     3.112000000
C     4.965000000     1.580000000     2.401000000
C     4.535000000     2.793000000     2.988000000
H     4.717000000     2.991000000     4.041000000
C     3.755000000     3.664000000     2.284000000
O     3.217000000     4.737000000     2.958000000
C     2.482000000     5.734000000     2.382000000
C     3.082000000     6.694000000     1.576000000
H     4.139000000     6.519000000     1.392000000
C     2.232000000     7.748000000     1.168000000
H     2.628000000     8.638000000     0.685000000
C     0.890000000     7.723000000     1.273000000
H     0.258000000     8.494000000     0.841000000
C     0.232000000     6.733000000     2.043000000
C     1.075000000     5.782000000     2.662000000
H     0.513000000     5.041000000     3.225000000
C    -0.280000000     1.639000000     2.223000000
H    -0.207000000     2.633000000     2.657000000
C     0.095000000     1.585000000     0.848000000
H     0.391000000     2.486000000     0.317000000
C    -0.193000000     0.387000000     0.155000000
C     0.150000000     0.214000000    -1.330000000
H     0.564000000     1.040000000    -1.913000000
H     0.904000000    -0.556000000    -1.509000000
H    -0.761000000    -0.110000000    -1.837000000
C    -0.598000000    -0.717000000     0.891000000
H    -0.845000000    -1.651000000     0.393000000
C    -0.887000000    -0.626000000     2.270000000
H    -1.405000000    -1.399000000     2.833000000
C    -0.757000000     0.562000000     2.940000000
C    -1.195000000     0.651000000     4.317000000
O    -1.655000000    -0.350000000     4.920000000
O    -0.996000000     1.667000000     4.936000000
O     2.033000000    -0.191000000     2.994000000
H     1.295000000    -0.597000000     2.538000000
H     1.908000000     0.749000000     2.860000000
O    -6.782000000     3.978000000     5.294000000
H    -7.432000000     4.642000000     5.064000000
H    -6.476000000     3.640000000     4.453000000
O     2.331000000    -0.985000000     5.514000000
H     2.342000000    -0.888000000     4.562000000
H     2.987000000    -1.659000000     5.694000000
O    -3.501000000     0.309000000     6.848000000
H    -3.146000000     1.119000000     7.213000000
H    -2.787000000    -0.049000000     6.321000000
O    -3.475000000     3.161000000     4.984000000
H    -4.078000000     2.582000000     5.449000000
H    -2.619000000     2.742000000     5.079000000
O    -1.827000000    -3.269000000     7.873000000
H    -1.259000000    -3.178000000     7.108000000
H    -2.641000000    -3.634000000     7.525000000
O     0.445000000     0.238000000     7.079000000
H    -0.041000000     0.710000000     6.403000000
H     1.302000000     0.072000000     6.687000000
O    -0.226000000    -2.355000000     6.010000000
H     0.400000000    -1.674000000     6.257000000
H    -0.977000000    -1.875000000     5.660000000
O     1.276000000    -4.578000000     6.804000000
H     2.021000000    -4.434000000     7.387000000
H     1.171000000    -3.748000000     6.340000000
O     3.962000000     4.211000000     6.468000000
H     3.289000000     3.631000000     6.112000000
H     3.723000000     5.081000000     6.147000000
O    -6.083000000     0.487000000     6.550000000
H    -6.295000000     0.623000000     7.473000000
H    -5.129000000     0.556000000     6.511000000
O    -0.514000000    -1.114000000     9.993000000
H    -0.424000000    -0.932000000     9.057000000
H    -0.286000000    -2.040000000    10.080000000
O    -0.003000000     4.809000000     6.757000000
H     0.669000000     5.477000000     6.626000000
H    -0.125000000     4.773000000     7.705000000
O     0.895000000     2.630000000     9.068000000
H     0.209000000     2.283000000     8.498000000
H     1.528000000     1.916000000     9.143000000
O     1.470000000     2.734000000     5.686000000
H     0.975000000     3.506000000     5.960000000
H     0.807000000     2.131000000     5.350000000
O    -3.429000000    -1.334000000     9.203000000
H    -3.620000000    -0.820000000     8.419000000
H    -2.505000000    -1.570000000     9.116000000
O    -3.555000000     5.696000000     5.945000000
H    -3.320000000     4.827000000     5.620000000
H    -4.377000000     5.904000000     5.501000000
O    -1.637000000     2.572000000     7.238000000
H    -1.351000000     3.485000000     7.258000000
H    -1.344000000     2.248000000     6.386000000
O    -2.614000000     2.661000000    10.151000000
H    -1.860000000     2.964000000    10.657000000
H    -2.280000000     2.567000000     9.258000000
