218
-1473.03845
C    -2.455000000    -3.609000000     1.658000000
H    -1.499000000    -4.035000000     1.365000000
C    -3.420000000    -3.120000000     0.745000000
C    -4.644000000    -2.798000000     1.189000000
H    -5.359000000    -2.428000000     0.459000000
C    -3.006000000    -2.896000000    -0.728000000
O    -2.162000000    -3.917000000    -1.196000000
H    -2.433000000    -1.957000000    -0.699000000
O    -4.128000000    -2.770000000    -1.582000000
C    -4.078000000    -1.662000000    -2.447000000
C    -4.424000000    -0.453000000    -1.916000000
H    -5.032000000    -0.392000000    -1.017000000
C    -4.025000000     0.754000000    -2.532000000
O    -4.325000000     1.969000000    -1.907000000
C    -3.133000000     0.690000000    -3.621000000
C    -2.632000000     1.960000000    -4.318000000
H    -2.646000000     1.716000000    -5.383000000
C    -1.345000000     2.444000000    -3.801000000
C    -0.197000000     2.186000000    -4.508000000
H    -0.232000000     1.607000000    -5.427000000
H    -3.413000000     2.711000000    -4.189000000
C    -2.703000000    -0.570000000    -4.079000000
H    -2.035000000    -0.655000000    -4.932000000
C    -3.120000000    -1.724000000    -3.448000000
C    -2.505000000    -3.001000000    -3.957000000
H    -2.364000000    -2.869000000    -5.032000000
H    -3.181000000    -3.836000000    -3.762000000
C    -1.151000000    -3.231000000    -3.311000000
C     0.041000000    -2.885000000    -4.052000000
H    -0.004000000    -2.442000000    -5.044000000
C    -1.035000000    -3.701000000    -1.995000000
C     0.180000000    -3.825000000    -1.378000000
H     0.234000000    -4.107000000    -0.330000000
C     1.297000000    -3.586000000    -2.110000000
O     2.500000000    -3.801000000    -1.516000000
C     3.053000000    -2.722000000    -0.783000000
C     3.372000000    -3.046000000     0.648000000
C     4.402000000    -2.287000000     1.249000000
H     5.041000000    -1.589000000     0.715000000
C     2.814000000    -4.070000000     1.341000000
H     2.049000000    -4.666000000     0.850000000
O     4.163000000    -2.110000000    -1.551000000
H     2.236000000    -1.985000000    -0.771000000
C     1.278000000    -3.079000000    -3.420000000
C     2.568000000    -2.814000000    -4.132000000
H     2.433000000    -2.947000000    -5.208000000
H     3.244000000    -3.606000000    -3.807000000
C     3.051000000    -1.452000000    -3.654000000
C     2.491000000    -0.370000000    -4.358000000
H     1.846000000    -0.608000000    -5.200000000
C     3.812000000    -1.182000000    -2.512000000
C     4.178000000     0.079000000    -2.163000000
H     4.706000000     0.343000000    -1.250000000
C     3.754000000     1.138000000    -2.921000000
O     3.980000000     2.386000000    -2.411000000
C     3.010000000     2.851000000    -1.448000000
C     3.613000000     3.372000000    -0.218000000
C     4.731000000     2.898000000     0.413000000
H     5.200000000     1.998000000     0.023000000
C     2.943000000     4.437000000     0.432000000
H     2.001000000     4.769000000     0.004000000
O     2.246000000     3.784000000    -2.182000000
H     2.363000000     2.035000000    -1.093000000
C     2.881000000     0.952000000    -4.005000000
C     2.291000000     2.164000000    -4.690000000
H     2.071000000     1.818000000    -5.702000000
H     3.075000000     2.923000000    -4.741000000
C     1.039000000     2.573000000    -3.955000000
C     1.060000000     3.309000000    -2.750000000
C    -0.085000000     3.613000000    -2.086000000
H    -0.015000000     4.214000000    -1.182000000
C    -1.290000000     3.075000000    -2.559000000
O    -2.426000000     3.475000000    -1.986000000
C    -3.174000000     2.508000000    -1.211000000
H    -2.492000000     1.677000000    -0.978000000
C    -3.568000000     3.079000000     0.178000000
C    -4.535000000     2.460000000     0.984000000
H    -5.056000000     1.602000000     0.568000000
C    -2.829000000     4.147000000     0.721000000
H    -2.005000000     4.524000000     0.122000000
C    -3.032000000     4.590000000     2.000000000
O    -2.201000000     5.525000000     2.573000000
C    -4.087000000     4.027000000     2.743000000
H    -4.235000000     4.482000000     3.719000000
C    -4.773000000     2.925000000     2.251000000
O    -5.704000000     2.276000000     3.067000000
C    -6.460000000     1.146000000     2.817000000
C    -5.943000000    -0.144000000     2.934000000
H    -4.870000000    -0.279000000     3.048000000
C    -7.835000000     1.317000000     2.693000000
H    -8.429000000     2.218000000     2.566000000
C    -8.671000000     0.202000000     2.645000000
H    -9.742000000     0.368000000     2.722000000
C    -8.166000000    -1.108000000     2.689000000
H    -8.814000000    -1.971000000     2.561000000
C    -6.778000000    -1.280000000     2.850000000
O    -6.291000000    -2.618000000     2.881000000
C    -4.985000000    -2.939000000     2.523000000
C    -4.047000000    -3.358000000     3.484000000
H    -4.340000000    -3.444000000     4.527000000
C    -2.782000000    -3.737000000     3.000000000
O    -1.871000000    -4.190000000     3.928000000
C    -0.873000000    -5.069000000     3.685000000
C     0.492000000    -4.758000000     3.578000000
H     0.816000000    -3.740000000     3.775000000
C    -1.275000000    -6.407000000     3.529000000
H    -2.330000000    -6.668000000     3.499000000
C    -0.370000000    -7.447000000     3.282000000
H    -0.677000000    -8.472000000     3.089000000
C     0.983000000    -7.103000000     3.188000000
H     1.783000000    -7.834000000     3.103000000
C     1.378000000    -5.764000000     3.216000000
O     2.698000000    -5.431000000     3.253000000
C     3.170000000    -4.337000000     2.608000000
C     4.222000000    -3.676000000     3.237000000
H     4.606000000    -4.052000000     4.181000000
C     4.804000000    -2.599000000     2.550000000
O     5.835000000    -1.866000000     3.146000000
C     6.522000000    -0.842000000     2.591000000
C     6.099000000     0.481000000     2.822000000
H     5.396000000     0.791000000     3.592000000
C     7.488000000    -1.083000000     1.583000000
H     7.782000000    -2.062000000     1.215000000
C     8.229000000    -0.027000000     1.039000000
H     9.015000000    -0.252000000     0.322000000
C     7.708000000     1.276000000     1.254000000
H     8.169000000     2.086000000     0.694000000
C     6.679000000     1.533000000     2.149000000
O     6.227000000     2.783000000     2.408000000
C     5.207000000     3.369000000     1.674000000
C     4.563000000     4.468000000     2.276000000
H     4.919000000     4.885000000     3.215000000
C     3.425000000     4.961000000     1.656000000
O     2.629000000     5.774000000     2.411000000
C     1.382000000     6.155000000     2.042000000
C     1.343000000     7.113000000     1.023000000
H     2.281000000     7.403000000     0.555000000
C     0.119000000     7.539000000     0.507000000
H     0.161000000     8.414000000    -0.137000000
C    -1.064000000     7.076000000     1.004000000
H    -2.043000000     7.342000000     0.613000000
C    -1.041000000     6.050000000     1.966000000
C     0.213000000     5.633000000     2.526000000
H     0.232000000     4.937000000     3.361000000
C     1.184000000     1.896000000     2.137000000
H     1.149000000     2.941000000     2.433000000
C     0.555000000     1.597000000     0.956000000
H     0.102000000     2.406000000     0.390000000
C     0.506000000     0.292000000     0.510000000
C     0.043000000     0.035000000    -0.893000000
H    -0.999000000     0.325000000    -1.042000000
H     0.679000000     0.585000000    -1.590000000
H    -0.024000000    -1.026000000    -1.140000000
C     0.986000000    -0.702000000     1.374000000
H     0.857000000    -1.734000000     1.056000000
C     1.424000000    -0.440000000     2.659000000
H     1.945000000    -1.204000000     3.230000000
C     1.550000000     0.903000000     3.015000000
C     2.190000000     1.297000000     4.300000000
O     2.489000000     0.455000000     5.129000000
O     2.138000000     2.472000000     4.622000000
O     0.877000000    -1.572000000     8.832000000
H     0.891000000    -0.932000000     8.120000000
H     1.597000000    -2.170000000     8.630000000
O    -2.265000000    -2.272000000     7.803000000
H    -1.473000000    -2.461000000     7.301000000
H    -2.747000000    -3.099000000     7.811000000
O    -1.842000000     4.156000000     5.586000000
H    -1.877000000     5.110000000     5.515000000
H    -1.003000000     3.977000000     6.009000000
O    -0.111000000    -1.825000000     5.563000000
H     0.717000000    -1.380000000     5.381000000
H     0.144000000    -2.711000000     5.820000000
O     4.323000000    -0.889000000     6.570000000
H     3.715000000    -0.346000000     6.068000000
H     4.895000000    -1.280000000     5.909000000
O     0.078000000     3.765000000     7.885000000
H     0.897000000     4.215000000     8.092000000
H     0.352000000     2.903000000     7.572000000
O     1.350000000     1.108000000     7.382000000
H     2.047000000     1.474000000     7.927000000
H     1.775000000     0.914000000     6.547000000
O    -0.835000000     6.683000000     5.302000000
H    -0.573000000     6.829000000     6.210000000
H    -0.581000000     7.486000000     4.847000000
O    -2.440000000    -0.649000000     4.749000000
H    -1.665000000    -1.161000000     4.981000000
H    -2.091000000     0.130000000     4.317000000
O     2.874000000    -3.110000000     7.897000000
H     3.481000000    -2.424000000     7.619000000
H     3.419000000    -3.891000000     7.986000000
O     3.699000000     4.249000000     5.615000000
H     3.342000000     3.506000000     5.128000000
H     3.127000000     4.982000000     5.388000000
O     5.950000000     1.106000000     7.704000000
H     6.066000000     1.718000000     6.978000000
H     5.604000000     0.312000000     7.295000000
O    -1.806000000     1.988000000     3.796000000
H    -1.368000000     2.371000000     3.036000000
H    -1.762000000     2.669000000     4.467000000
O     0.720000000    -4.101000000     6.884000000
H     1.526000000    -3.611000000     7.044000000
H     0.947000000    -5.009000000     7.088000000
O     2.625000000     4.777000000     8.443000000
H     2.773000000     3.834000000     8.513000000
H     3.079000000     5.032000000     7.640000000
O    -1.632000000     0.598000000     7.721000000
H    -1.708000000    -0.295000000     7.386000000
H    -0.800000000     0.916000000     7.370000000
O     6.486000000     5.420000000     6.875000000
H     7.184000000     5.282000000     6.234000000
H     5.690000000     5.498000000     6.348000000
O     3.487000000     2.224000000     8.893000000
H     4.059000000     1.610000000     8.431000000
H     3.852000000     2.273000000     9.776000000
O     5.884000000     2.653000000     5.614000000
H     5.890000000     2.595000000     4.658000000
H     5.056000000     3.086000000     5.822000000
