218
-1455.37186
C    -2.509000000    -4.183000000     1.563000000
H    -1.552000000    -4.602000000     1.263000000
C    -3.346000000    -3.501000000     0.625000000
C    -4.582000000    -2.958000000     0.998000000
H    -5.145000000    -2.356000000     0.289000000
C    -2.726000000    -3.213000000    -0.752000000
O    -2.028000000    -4.386000000    -1.278000000
H    -1.949000000    -2.471000000    -0.516000000
O    -3.754000000    -2.758000000    -1.657000000
C    -3.508000000    -1.714000000    -2.466000000
C    -4.029000000    -0.491000000    -2.143000000
H    -4.684000000    -0.278000000    -1.302000000
C    -3.628000000     0.678000000    -2.888000000
O    -3.937000000     1.851000000    -2.254000000
C    -2.817000000     0.543000000    -3.997000000
C    -2.406000000     1.835000000    -4.690000000
H    -2.117000000     1.542000000    -5.701000000
C    -1.147000000     2.459000000    -4.067000000
C     0.077000000     2.039000000    -4.552000000
H     0.021000000     1.349000000    -5.391000000
H    -3.174000000     2.610000000    -4.732000000
C    -2.288000000    -0.726000000    -4.328000000
H    -1.652000000    -0.753000000    -5.209000000
C    -2.665000000    -1.892000000    -3.551000000
C    -2.201000000    -3.281000000    -3.971000000
H    -2.105000000    -3.382000000    -5.054000000
H    -2.947000000    -4.002000000    -3.629000000
C    -0.905000000    -3.599000000    -3.264000000
C     0.344000000    -3.411000000    -3.883000000
H     0.217000000    -2.897000000    -4.832000000
C    -0.894000000    -4.192000000    -1.982000000
C     0.282000000    -4.375000000    -1.252000000
H     0.323000000    -4.777000000    -0.243000000
C     1.497000000    -4.061000000    -1.846000000
O     2.664000000    -4.241000000    -1.147000000
C     3.255000000    -3.013000000    -0.580000000
C     3.680000000    -3.023000000     0.870000000
C     4.651000000    -2.245000000     1.355000000
H     5.091000000    -1.471000000     0.731000000
C     2.990000000    -3.917000000     1.687000000
H     2.278000000    -4.549000000     1.162000000
O     4.307000000    -2.465000000    -1.417000000
H     2.395000000    -2.327000000    -0.573000000
C     1.513000000    -3.557000000    -3.169000000
C     2.837000000    -3.034000000    -3.856000000
H     2.750000000    -3.152000000    -4.938000000
H     3.588000000    -3.731000000    -3.479000000
C     3.267000000    -1.610000000    -3.428000000
C     2.871000000    -0.490000000    -4.157000000
H     2.317000000    -0.705000000    -5.067000000
C     3.980000000    -1.413000000    -2.212000000
C     4.212000000    -0.124000000    -1.721000000
H     4.629000000     0.065000000    -0.735000000
C     3.841000000     0.976000000    -2.500000000
O     4.027000000     2.230000000    -1.857000000
C     2.895000000     2.889000000    -1.296000000
C     3.116000000     3.493000000     0.036000000
C     4.140000000     3.014000000     0.891000000
H     4.701000000     2.129000000     0.600000000
C     2.409000000     4.656000000     0.419000000
H     1.582000000     5.052000000    -0.165000000
O     2.414000000     3.806000000    -2.305000000
H     2.069000000     2.166000000    -1.217000000
C     3.141000000     0.874000000    -3.710000000
C     2.614000000     2.021000000    -4.548000000
H     2.525000000     1.660000000    -5.575000000
H     3.313000000     2.859000000    -4.572000000
C     1.277000000     2.515000000    -3.991000000
C     1.233000000     3.441000000    -2.943000000
C     0.040000000     3.710000000    -2.348000000
H     0.065000000     4.410000000    -1.517000000
C    -1.176000000     3.189000000    -2.885000000
O    -2.246000000     3.476000000    -2.161000000
C    -2.851000000     2.378000000    -1.434000000
H    -2.113000000     1.600000000    -1.191000000
C    -3.336000000     2.886000000    -0.128000000
C    -4.480000000     2.351000000     0.451000000
H    -5.070000000     1.620000000    -0.095000000
C    -2.698000000     3.861000000     0.574000000
H    -1.760000000     4.229000000     0.166000000
C    -3.149000000     4.271000000     1.832000000
O    -2.566000000     5.341000000     2.553000000
C    -4.157000000     3.591000000     2.436000000
H    -4.425000000     3.869000000     3.452000000
C    -4.856000000     2.639000000     1.759000000
O    -5.978000000     2.123000000     2.369000000
C    -6.594000000     0.940000000     2.102000000
C    -6.001000000    -0.304000000     2.358000000
H    -4.931000000    -0.325000000     2.551000000
C    -7.969000000     1.076000000     2.017000000
H    -8.350000000     2.091000000     1.931000000
C    -8.796000000    -0.007000000     2.096000000
H    -9.873000000     0.136000000     2.082000000
C    -8.214000000    -1.275000000     2.383000000
H    -8.856000000    -2.149000000     2.454000000
C    -6.796000000    -1.396000000     2.515000000
O    -6.277000000    -2.663000000     2.782000000
C    -4.987000000    -3.110000000     2.321000000
C    -4.219000000    -3.891000000     3.228000000
H    -4.639000000    -3.977000000     4.227000000
C    -3.011000000    -4.429000000     2.835000000
O    -2.259000000    -5.135000000     3.784000000
C    -0.891000000    -5.553000000     3.538000000
C     0.244000000    -4.835000000     4.042000000
H     0.085000000    -3.933000000     4.627000000
C    -0.716000000    -6.671000000     2.738000000
H    -1.610000000    -7.213000000     2.439000000
C     0.499000000    -7.137000000     2.368000000
H     0.538000000    -7.957000000     1.655000000
C     1.636000000    -6.422000000     2.863000000
H     2.657000000    -6.704000000     2.619000000
C     1.470000000    -5.362000000     3.703000000
O     2.565000000    -4.616000000     3.961000000
C     3.284000000    -3.856000000     3.068000000
C     4.239000000    -3.017000000     3.570000000
H     4.401000000    -2.866000000     4.634000000
C     4.988000000    -2.238000000     2.716000000
O     5.991000000    -1.505000000     3.251000000
C     6.392000000    -0.229000000     2.932000000
C     5.599000000     0.840000000     3.135000000
H     4.577000000     0.698000000     3.476000000
C     7.669000000    -0.140000000     2.348000000
H     8.201000000    -1.086000000     2.288000000
C     8.216000000     1.004000000     1.916000000
H     9.182000000     1.000000000     1.417000000
C     7.484000000     2.215000000     2.207000000
H     7.858000000     3.221000000     2.035000000
C     6.174000000     2.097000000     2.795000000
O     5.433000000     3.215000000     2.969000000
C     4.409000000     3.626000000     2.118000000
C     3.595000000     4.626000000     2.493000000
H     3.592000000     4.961000000     3.527000000
C     2.740000000     5.259000000     1.601000000
O     2.051000000     6.386000000     2.085000000
C     0.753000000     6.628000000     1.755000000
C     0.467000000     7.708000000     0.942000000
H     1.249000000     8.393000000     0.625000000
C    -0.900000000     8.047000000     0.612000000
H    -1.186000000     8.978000000     0.129000000
C    -1.918000000     7.259000000     1.156000000
H    -2.946000000     7.588000000     1.025000000
C    -1.626000000     6.164000000     1.978000000
C    -0.325000000     5.898000000     2.341000000
H    -0.205000000     4.945000000     2.850000000
C     0.436000000     1.920000000     1.942000000
H     0.267000000     2.989000000     2.050000000
C     0.077000000     1.363000000     0.740000000
H    -0.484000000     1.984000000     0.045000000
C     0.321000000     0.019000000     0.525000000
C    -0.172000000    -0.453000000    -0.779000000
H    -0.159000000    -1.544000000    -0.737000000
H    -1.127000000    -0.089000000    -1.164000000
H     0.579000000    -0.120000000    -1.499000000
C     0.927000000    -0.774000000     1.465000000
H     1.265000000    -1.799000000     1.335000000
C     1.337000000    -0.119000000     2.653000000
H     1.958000000    -0.679000000     3.347000000
C     1.143000000     1.176000000     2.942000000
C     1.531000000     1.907000000     4.194000000
O     2.045000000     1.324000000     5.141000000
O     1.152000000     3.035000000     4.418000000
O    -0.836000000     5.974000000     6.062000000
H    -1.730000000     5.773000000     5.786000000
H    -0.648000000     6.824000000     5.663000000
O     0.269000000    -0.670000000     5.606000000
H     0.731000000     0.150000000     5.428000000
H     0.942000000    -1.253000000     5.956000000
O    -1.712000000     1.367000000     7.336000000
H    -1.884000000     1.022000000     6.460000000
H    -0.844000000     1.767000000     7.269000000
O    -1.644000000    -0.687000000     3.538000000
H    -0.837000000    -0.495000000     3.062000000
H    -1.401000000    -1.380000000     4.152000000
O     4.453000000     0.322000000     6.185000000
H     3.683000000     0.764000000     5.827000000
H     4.237000000     0.171000000     7.105000000
O    -1.350000000     3.206000000     5.134000000
H    -0.460000000     3.204000000     4.781000000
H    -1.267000000     3.624000000     5.991000000
O     1.302000000     2.135000000     7.785000000
H     1.289000000     1.390000000     8.385000000
H     1.595000000     1.766000000     6.952000000
O    -0.822000000    -1.791000000     7.962000000
H    -1.521000000    -2.330000000     7.592000000
H    -0.410000000    -1.379000000     7.202000000
O     0.862000000    -0.099000000     9.263000000
H     1.116000000    -0.648000000    10.005000000
H     0.323000000    -0.670000000     8.715000000
O     3.649000000    -0.618000000     8.779000000
H     4.251000000    -0.850000000     9.486000000
H     2.810000000    -0.473000000     9.217000000
O     2.808000000     4.790000000     5.822000000
H     2.381000000     4.070000000     5.359000000
H     2.447000000     5.581000000     5.421000000
O     6.611000000    -1.249000000     6.315000000
H     7.370000000    -0.881000000     5.862000000
H     5.941000000    -0.567000000     6.252000000
O     1.991000000     7.154000000     4.936000000
H     1.288000000     6.912000000     4.333000000
H     2.261000000     8.027000000     4.651000000
O    -3.108000000     0.958000000     5.000000000
H    -2.589000000     0.245000000     4.628000000
H    -2.733000000     1.751000000     4.617000000
O     2.344000000    -2.477000000     6.936000000
H     2.901000000    -1.838000000     7.380000000
H     2.900000000    -2.845000000     6.250000000
O     0.517000000     4.927000000     8.237000000
H     0.934000000     4.135000000     7.897000000
H     0.078000000     5.311000000     7.479000000
O     5.466000000     5.679000000     5.661000000
H     5.485000000     6.632000000     5.573000000
H     4.542000000     5.469000000     5.795000000
O     3.930000000     3.473000000     8.258000000
H     3.511000000     3.644000000     7.414000000
H     3.202000000     3.318000000     8.860000000
O     7.508000000     1.735000000     6.271000000
H     8.265000000     2.088000000     5.804000000
H     6.932000000     1.408000000     5.580000000
