218
-1449.50685
C    -2.305000000    -3.795000000     2.099000000
H    -1.384000000    -4.304000000     1.827000000
C    -3.039000000    -3.182000000     1.147000000
C    -4.046000000    -2.313000000     1.503000000
H    -4.457000000    -1.655000000     0.742000000
C    -2.547000000    -3.121000000    -0.261000000
O    -1.780000000    -4.358000000    -0.568000000
H    -1.882000000    -2.247000000    -0.192000000
O    -3.657000000    -3.042000000    -1.195000000
C    -3.527000000    -2.137000000    -2.195000000
C    -4.169000000    -0.910000000    -2.104000000
H    -4.659000000    -0.679000000    -1.162000000
C    -3.761000000     0.107000000    -2.939000000
O    -4.136000000     1.362000000    -2.638000000
C    -2.826000000    -0.105000000    -3.891000000
C    -2.462000000     1.088000000    -4.775000000
H    -2.225000000     0.639000000    -5.742000000
C    -1.203000000     1.750000000    -4.186000000
C     0.029000000     1.395000000    -4.745000000
H     0.091000000     0.495000000    -5.351000000
H    -3.266000000     1.779000000    -5.038000000
C    -2.252000000    -1.374000000    -4.122000000
H    -1.574000000    -1.564000000    -4.949000000
C    -2.551000000    -2.382000000    -3.220000000
C    -1.968000000    -3.843000000    -3.394000000
H    -2.031000000    -4.057000000    -4.463000000
H    -2.539000000    -4.632000000    -2.901000000
C    -0.642000000    -4.013000000    -2.755000000
C     0.561000000    -3.705000000    -3.409000000
H     0.566000000    -3.417000000    -4.457000000
C    -0.649000000    -4.247000000    -1.356000000
C     0.550000000    -4.455000000    -0.645000000
H     0.640000000    -4.625000000     0.425000000
C     1.742000000    -4.170000000    -1.344000000
O     2.847000000    -4.166000000    -0.494000000
C     3.372000000    -2.865000000    -0.095000000
C     3.638000000    -2.859000000     1.416000000
C     4.568000000    -1.950000000     1.945000000
H     5.119000000    -1.321000000     1.250000000
C     3.073000000    -3.764000000     2.277000000
H     2.451000000    -4.602000000     1.972000000
O     4.432000000    -2.398000000    -0.863000000
H     2.500000000    -2.209000000    -0.230000000
C     1.772000000    -3.837000000    -2.736000000
C     3.099000000    -3.424000000    -3.420000000
H     3.010000000    -3.516000000    -4.505000000
H     3.885000000    -4.065000000    -3.014000000
C     3.423000000    -1.958000000    -3.103000000
C     2.966000000    -0.946000000    -3.950000000
H     2.417000000    -1.166000000    -4.863000000
C     4.108000000    -1.565000000    -1.938000000
C     4.310000000    -0.216000000    -1.747000000
H     4.682000000     0.115000000    -0.781000000
C     3.786000000     0.805000000    -2.539000000
O     3.924000000     2.068000000    -2.104000000
C     2.807000000     2.749000000    -1.553000000
C     3.137000000     3.582000000    -0.391000000
C     4.220000000     3.155000000     0.369000000
H     4.832000000     2.285000000     0.141000000
C     2.374000000     4.636000000    -0.010000000
H     1.516000000     5.070000000    -0.519000000
O     2.314000000     3.531000000    -2.610000000
H     2.034000000     2.024000000    -1.260000000
C     3.198000000     0.439000000    -3.743000000
C     2.551000000     1.457000000    -4.726000000
H     2.440000000     1.091000000    -5.749000000
H     3.249000000     2.291000000    -4.629000000
C     1.184000000     1.999000000    -4.216000000
C     1.162000000     2.985000000    -3.218000000
C    -0.125000000     3.366000000    -2.783000000
H    -0.164000000     4.096000000    -1.979000000
C    -1.246000000     2.714000000    -3.205000000
O    -2.476000000     3.083000000    -2.655000000
C    -3.196000000     2.161000000    -1.871000000
H    -2.371000000     1.574000000    -1.442000000
C    -3.842000000     2.938000000    -0.753000000
C    -5.132000000     2.715000000    -0.331000000
H    -5.693000000     2.008000000    -0.937000000
C    -3.128000000     3.986000000    -0.035000000
H    -2.119000000     4.267000000    -0.326000000
C    -3.655000000     4.538000000     1.132000000
O    -2.824000000     5.378000000     1.888000000
C    -4.991000000     4.304000000     1.500000000
H    -5.275000000     4.562000000     2.517000000
C    -5.715000000     3.348000000     0.776000000
O    -6.928000000     2.903000000     1.204000000
C    -7.077000000     1.481000000     1.445000000
C    -6.344000000     0.797000000     2.335000000
H    -5.634000000     1.258000000     3.016000000
C    -7.974000000     0.879000000     0.568000000
H    -8.471000000     1.469000000    -0.197000000
C    -8.068000000    -0.543000000     0.489000000
H    -8.737000000    -0.974000000    -0.251000000
C    -7.224000000    -1.264000000     1.359000000
H    -7.306000000    -2.346000000     1.429000000
C    -6.393000000    -0.594000000     2.234000000
O    -5.545000000    -1.270000000     3.101000000
C    -4.526000000    -2.148000000     2.754000000
C    -3.920000000    -2.935000000     3.759000000
H    -4.163000000    -2.878000000     4.817000000
C    -2.819000000    -3.752000000     3.419000000
O    -2.037000000    -4.342000000     4.457000000
C    -0.902000000    -5.104000000     4.296000000
C     0.351000000    -4.586000000     4.657000000
H     0.346000000    -3.545000000     4.970000000
C    -0.986000000    -6.352000000     3.711000000
H    -1.977000000    -6.722000000     3.461000000
C     0.171000000    -7.113000000     3.504000000
H     0.055000000    -8.168000000     3.266000000
C     1.401000000    -6.533000000     3.796000000
H     2.352000000    -7.036000000     3.636000000
C     1.505000000    -5.239000000     4.284000000
O     2.764000000    -4.703000000     4.479000000
C     3.318000000    -3.749000000     3.607000000
C     4.118000000    -2.775000000     4.127000000
H     4.197000000    -2.629000000     5.201000000
C     4.811000000    -1.902000000     3.312000000
O     5.608000000    -0.869000000     3.945000000
C     6.254000000     0.150000000     3.358000000
C     5.612000000     1.387000000     3.136000000
H     4.584000000     1.473000000     3.480000000
C     7.439000000    -0.152000000     2.748000000
H     7.864000000    -1.153000000     2.758000000
C     8.078000000     0.894000000     2.043000000
H     9.045000000     0.846000000     1.549000000
C     7.501000000     2.186000000     1.928000000
H     7.983000000     3.025000000     1.432000000
C     6.238000000     2.425000000     2.380000000
O     5.645000000     3.664000000     2.186000000
C     4.555000000     3.964000000     1.474000000
C     3.723000000     4.963000000     1.932000000
H     3.905000000     5.495000000     2.863000000
C     2.653000000     5.348000000     1.207000000
O     1.910000000     6.396000000     1.708000000
C     0.565000000     6.664000000     1.281000000
C     0.244000000     7.802000000     0.584000000
H     0.994000000     8.559000000     0.369000000
C    -1.018000000     8.050000000     0.091000000
H    -1.183000000     8.964000000    -0.474000000
C    -2.073000000     7.185000000     0.526000000
H    -3.076000000     7.443000000     0.198000000
C    -1.818000000     6.107000000     1.351000000
C    -0.459000000     5.799000000     1.719000000
H    -0.252000000     4.953000000     2.369000000
C    -1.215000000     1.421000000     1.884000000
H    -1.568000000     2.448000000     1.948000000
C    -0.515000000     1.062000000     0.785000000
H    -0.250000000     1.829000000     0.061000000
C    -0.011000000    -0.174000000     0.677000000
C     0.709000000    -0.533000000    -0.651000000
H     1.788000000    -0.383000000    -0.570000000
H     0.499000000    -1.577000000    -0.890000000
H     0.350000000     0.136000000    -1.436000000
C    -0.247000000    -1.117000000     1.648000000
H     0.210000000    -2.093000000     1.503000000
C    -0.975000000    -0.787000000     2.776000000
H    -1.188000000    -1.556000000     3.514000000
C    -1.361000000     0.570000000     2.954000000
C    -2.103000000     1.072000000     4.082000000
O    -2.046000000     0.433000000     5.148000000
O    -2.611000000     2.164000000     4.140000000
O     0.664000000     1.184000000     5.473000000
H    -0.262000000     0.951000000     5.407000000
H     1.059000000     0.822000000     4.680000000
O    -1.078000000     3.438000000     9.640000000
H    -1.193000000     2.701000000     9.041000000
H    -1.695000000     3.266000000    10.352000000
O    -2.158000000     1.662000000     7.524000000
H    -2.252000000     1.322000000     6.634000000
H    -2.508000000     0.969000000     8.084000000
O    -3.627000000     3.974000000     8.151000000
H    -2.813000000     3.504000000     7.968000000
H    -4.052000000     4.057000000     7.298000000
O    -4.484000000     4.118000000     5.422000000
H    -3.745000000     3.603000000     5.099000000
H    -4.440000000     4.936000000     4.928000000
O    -1.660000000     7.487000000     4.524000000
H    -1.066000000     6.844000000     4.136000000
H    -1.310000000     7.637000000     5.402000000
O    -1.959000000    -1.512000000     6.890000000
H    -1.302000000    -1.267000000     7.541000000
H    -1.879000000    -0.847000000     6.206000000
O    -6.484000000    -1.929000000     6.793000000
H    -7.191000000    -1.318000000     7.000000000
H    -5.804000000    -1.383000000     6.398000000
O     1.903000000    -1.069000000     6.434000000
H     1.274000000    -0.379000000     6.226000000
H     2.741000000    -0.613000000     6.511000000
O     0.989000000     3.783000000     5.758000000
H     0.882000000     2.832000000     5.773000000
H     1.931000000     3.920000000     5.859000000
O     0.030000000    -0.215000000     8.647000000
H     0.899000000    -0.582000000     8.813000000
H     0.199000000     0.585000000     8.150000000
O    -3.064000000    -2.891000000     8.873000000
H    -2.868000000    -2.424000000     8.061000000
H    -3.964000000    -2.641000000     9.081000000
O     1.004000000     4.743000000     8.606000000
H     0.162000000     4.448000000     8.955000000
H     0.983000000     4.487000000     7.684000000
O    -1.402000000     4.384000000     5.062000000
H    -1.801000000     3.534000000     4.874000000
H    -0.513000000     4.173000000     5.345000000
O    -6.025000000     1.772000000     7.326000000
H    -5.297000000     2.392000000     7.373000000
H    -5.700000000     1.062000000     6.772000000
O    -4.766000000     0.080000000     5.501000000
H    -3.815000000     0.161000000     5.567000000
H    -4.948000000     0.148000000     4.564000000
O    -7.249000000     4.261000000     5.180000000
H    -7.206000000     4.167000000     6.132000000
H    -6.355000000     4.095000000     4.883000000
O     1.200000000    -3.339000000     7.521000000
H     1.289000000    -2.873000000     8.352000000
H     1.303000000    -2.660000000     6.854000000
O    -4.092000000     6.383000000     4.072000000
H    -4.027000000     6.905000000     3.272000000
H    -3.198000000     6.356000000     4.412000000
