218
-1436.32127
C    -2.166000000    -3.857000000     2.421000000
H    -1.276000000    -4.422000000     2.158000000
C    -3.039000000    -3.487000000     1.401000000
C    -4.241000000    -2.999000000     1.683000000
H    -4.962000000    -2.722000000     0.918000000
C    -2.532000000    -3.550000000    -0.062000000
O    -1.718000000    -4.695000000    -0.528000000
H    -1.787000000    -2.749000000    -0.181000000
O    -3.600000000    -3.240000000    -1.025000000
C    -3.208000000    -2.360000000    -2.052000000
C    -3.686000000    -1.100000000    -1.902000000
H    -4.322000000    -0.888000000    -1.046000000
C    -3.455000000    -0.122000000    -2.795000000
O    -3.862000000     1.171000000    -2.506000000
C    -2.660000000    -0.409000000    -3.919000000
C    -2.431000000     0.762000000    -4.917000000
H    -2.300000000     0.419000000    -5.945000000
C    -1.249000000     1.606000000    -4.516000000
C     0.023000000     1.167000000    -4.889000000
H     0.045000000     0.298000000    -5.542000000
H    -3.335000000     1.375000000    -4.920000000
C    -2.158000000    -1.706000000    -4.149000000
H    -1.494000000    -1.947000000    -4.976000000
C    -2.445000000    -2.711000000    -3.187000000
C    -1.847000000    -4.108000000    -3.316000000
H    -1.563000000    -4.336000000    -4.346000000
H    -2.546000000    -4.914000000    -3.080000000
C    -0.546000000    -4.236000000    -2.588000000
C     0.657000000    -3.924000000    -3.271000000
H     0.597000000    -3.643000000    -4.319000000
C    -0.547000000    -4.558000000    -1.241000000
C     0.710000000    -4.698000000    -0.585000000
H     0.697000000    -4.818000000     0.496000000
C     1.855000000    -4.122000000    -1.207000000
O     2.944000000    -4.042000000    -0.463000000
C     3.338000000    -2.663000000    -0.125000000
C     3.738000000    -2.661000000     1.316000000
C     4.561000000    -1.730000000     1.860000000
H     5.135000000    -1.158000000     1.135000000
C     3.195000000    -3.620000000     2.240000000
H     2.625000000    -4.479000000     1.897000000
O     4.394000000    -2.294000000    -0.971000000
H     2.475000000    -1.997000000    -0.268000000
C     1.808000000    -3.789000000    -2.530000000
C     3.131000000    -3.443000000    -3.194000000
H     3.083000000    -3.734000000    -4.246000000
H     3.884000000    -4.146000000    -2.833000000
C     3.562000000    -1.964000000    -3.136000000
C     3.096000000    -1.033000000    -4.043000000
H     2.545000000    -1.483000000    -4.865000000
C     4.127000000    -1.486000000    -2.000000000
C     4.226000000    -0.179000000    -1.710000000
H     4.715000000     0.232000000    -0.831000000
C     3.738000000     0.796000000    -2.589000000
O     3.796000000     2.064000000    -2.072000000
C     2.558000000     2.673000000    -1.776000000
C     2.666000000     3.537000000    -0.548000000
C     3.668000000     3.253000000     0.358000000
H     4.378000000     2.434000000     0.282000000
C     1.769000000     4.583000000    -0.265000000
H     0.960000000     4.874000000    -0.931000000
O     2.041000000     3.436000000    -2.923000000
H     1.847000000     1.874000000    -1.519000000
C     3.173000000     0.331000000    -3.798000000
C     2.526000000     1.228000000    -4.787000000
H     2.333000000     0.579000000    -5.644000000
H     3.214000000     2.062000000    -4.937000000
C     1.173000000     1.881000000    -4.467000000
C     0.966000000     2.893000000    -3.562000000
C    -0.302000000     3.410000000    -3.278000000
H    -0.396000000     4.313000000    -2.680000000
C    -1.421000000     2.719000000    -3.721000000
O    -2.586000000     3.012000000    -3.132000000
C    -2.989000000     2.170000000    -2.040000000
H    -2.077000000     1.694000000    -1.650000000
C    -3.627000000     2.977000000    -0.910000000
C    -4.270000000     2.283000000     0.140000000
H    -4.293000000     1.197000000     0.187000000
C    -3.362000000     4.287000000    -0.748000000
H    -2.726000000     4.817000000    -1.452000000
C    -3.891000000     5.086000000     0.272000000
O    -3.627000000     6.437000000     0.312000000
C    -4.637000000     4.437000000     1.217000000
H    -5.052000000     5.022000000     2.034000000
C    -4.828000000     3.064000000     1.176000000
O    -5.586000000     2.366000000     2.156000000
C    -6.266000000     1.188000000     2.057000000
C    -5.633000000     0.057000000     2.538000000
H    -4.625000000     0.203000000     2.919000000
C    -7.508000000     1.051000000     1.431000000
H    -7.931000000     1.966000000     1.024000000
C    -8.074000000    -0.203000000     1.300000000
H    -9.008000000    -0.295000000     0.752000000
C    -7.513000000    -1.295000000     1.993000000
H    -7.984000000    -2.274000000     1.958000000
C    -6.318000000    -1.127000000     2.641000000
O    -5.792000000    -2.188000000     3.363000000
C    -4.646000000    -2.877000000     3.026000000
C    -3.761000000    -3.189000000     4.061000000
H    -4.076000000    -3.026000000     5.088000000
C    -2.571000000    -3.763000000     3.779000000
O    -1.740000000    -4.137000000     4.901000000
C    -0.680000000    -4.935000000     4.722000000
C     0.612000000    -4.413000000     4.481000000
H     0.687000000    -3.339000000     4.329000000
C    -0.804000000    -6.326000000     4.906000000
H    -1.784000000    -6.666000000     5.231000000
C     0.295000000    -7.157000000     4.722000000
H     0.196000000    -8.224000000     4.903000000
C     1.533000000    -6.612000000     4.501000000
H     2.416000000    -7.244000000     4.453000000
C     1.751000000    -5.184000000     4.489000000
O     2.972000000    -4.607000000     4.336000000
C     3.503000000    -3.603000000     3.580000000
C     4.456000000    -2.758000000     4.125000000
H     4.718000000    -2.956000000     5.161000000
C     4.965000000    -1.754000000     3.214000000
O     6.128000000    -1.019000000     3.517000000
C     6.384000000     0.311000000     3.024000000
C     5.364000000     1.275000000     2.927000000
H     4.333000000     1.031000000     3.172000000
C     7.663000000     0.703000000     2.637000000
H     8.430000000    -0.061000000     2.727000000
C     7.990000000     2.047000000     2.298000000
H     9.022000000     2.327000000     2.104000000
C     6.939000000     2.985000000     2.315000000
H     7.136000000     3.997000000     1.970000000
C     5.613000000     2.609000000     2.627000000
O     4.618000000     3.596000000     2.562000000
C     3.696000000     3.880000000     1.626000000
C     2.867000000     4.976000000     1.815000000
H     3.032000000     5.575000000     2.707000000
C     1.830000000     5.289000000     0.908000000
O     1.087000000     6.394000000     1.144000000
C    -0.016000000     6.893000000     0.539000000
C     0.178000000     7.953000000    -0.264000000
H     1.119000000     8.468000000    -0.436000000
C    -0.928000000     8.620000000    -0.836000000
H    -0.711000000     9.513000000    -1.416000000
C    -2.223000000     8.138000000    -0.681000000
H    -3.022000000     8.666000000    -1.195000000
C    -2.383000000     6.918000000     0.014000000
C    -1.316000000     6.374000000     0.716000000
H    -1.496000000     5.614000000     1.471000000
C    -1.080000000     1.878000000     1.649000000
H    -1.523000000     2.868000000     1.716000000
C    -0.480000000     1.469000000     0.435000000
H    -0.396000000     2.246000000    -0.322000000
C    -0.142000000     0.186000000     0.262000000
C     0.350000000    -0.290000000    -1.145000000
H    -0.080000000    -1.256000000    -1.418000000
H     0.022000000     0.471000000    -1.855000000
H     1.438000000    -0.369000000    -1.195000000
C    -0.433000000    -0.759000000     1.236000000
H    -0.142000000    -1.798000000     1.107000000
C    -0.911000000    -0.353000000     2.464000000
H    -1.117000000    -1.156000000     3.167000000
C    -1.180000000     1.036000000     2.720000000
C    -1.725000000     1.429000000     4.055000000
O    -1.607000000     0.747000000     5.027000000
O    -2.257000000     2.484000000     4.185000000
O     3.411000000     1.227000000     6.656000000
H     3.740000000     1.962000000     6.138000000
H     2.720000000     1.607000000     7.199000000
O    -3.980000000    -2.840000000     7.802000000
H    -4.244000000    -1.931000000     7.656000000
H    -3.077000000    -2.779000000     8.115000000
O     1.847000000     2.492000000     8.475000000
H     2.376000000     2.549000000     9.271000000
H     1.793000000     3.394000000     8.159000000
O    -0.748000000     1.479000000     7.632000000
H    -0.759000000     1.124000000     6.743000000
H     0.148000000     1.796000000     7.752000000
O    -2.354000000     3.491000000     6.652000000
H    -2.031000000     2.821000000     7.255000000
H    -2.250000000     3.102000000     5.784000000
O    -4.800000000     2.518000000     4.910000000
H    -3.877000000     2.642000000     4.688000000
H    -5.277000000     2.928000000     4.189000000
O    -3.097000000     5.726000000     4.926000000
H    -2.549000000     5.119000000     4.429000000
H    -3.151000000     5.340000000     5.800000000
O    -0.337000000    -1.536000000     5.992000000
H    -0.947000000    -1.612000000     6.726000000
H    -0.605000000    -0.737000000     5.538000000
O     1.414000000     4.310000000     5.591000000
H     1.936000000     5.098000000     5.440000000
H     1.063000000     4.420000000     6.474000000
O    -2.782000000     0.631000000     9.193000000
H    -2.104000000     1.132000000     8.739000000
H    -3.486000000     0.544000000     8.550000000
O    -6.216000000    -1.066000000     7.790000000
H    -6.141000000    -0.508000000     7.016000000
H    -6.460000000    -1.924000000     7.444000000
O    -0.483000000     7.105000000     3.591000000
H    -0.381000000     6.180000000     3.814000000
H    -0.162000000     7.172000000     2.692000000
O    -1.123000000     6.936000000     6.508000000
H    -1.831000000     6.527000000     6.010000000
H    -1.072000000     7.828000000     6.163000000
O    -0.597000000     4.398000000     3.836000000
H    -1.110000000     3.594000000     3.920000000
H     0.161000000     4.259000000     4.404000000
O    -6.282000000     0.602000000     5.490000000
H    -5.750000000     1.351000000     5.219000000
H    -6.582000000     0.212000000     4.669000000
O    -3.561000000    -0.046000000     6.649000000
H    -2.692000000     0.150000000     6.297000000
H    -4.160000000     0.470000000     6.111000000
O    -4.631000000     3.938000000     8.313000000
H    -5.344000000     3.785000000     7.693000000
H    -3.872000000     4.131000000     7.763000000
O     2.532000000    -1.567000000     6.155000000
H     1.576000000    -1.591000000     6.198000000
H     2.733000000    -0.727000000     5.742000000
O    -5.353000000     6.724000000     4.233000000
H    -5.205000000     7.587000000     3.846000000
H    -4.494000000     6.459000000     4.561000000
