218
-1476.35049
C    -4.050000000     2.611000000    -1.358000000
H    -3.667000000     2.109000000    -2.243000000
C    -3.200000000     3.529000000    -0.718000000
C    -3.647000000     4.121000000     0.446000000
H    -3.156000000     4.963000000     0.928000000
C    -1.801000000     3.752000000    -1.180000000
O    -1.667000000     3.778000000    -2.601000000
H    -1.203000000     2.938000000    -0.747000000
O    -1.243000000     4.920000000    -0.614000000
C     0.041000000     4.783000000    -0.066000000
C     0.115000000     4.334000000     1.228000000
H    -0.727000000     4.300000000     1.915000000
C     1.381000000     3.981000000     1.820000000
O     1.410000000     3.533000000     3.134000000
C     2.569000000     4.026000000     0.989000000
C     3.868000000     3.540000000     1.549000000
H     4.682000000     4.070000000     1.050000000
C     4.058000000     2.049000000     1.447000000
C     4.730000000     1.519000000     0.344000000
H     5.216000000     2.144000000    -0.401000000
H     3.927000000     3.887000000     2.583000000
C     2.470000000     4.405000000    -0.326000000
H     3.302000000     4.276000000    -1.014000000
C     1.231000000     4.758000000    -0.867000000
C     1.210000000     4.961000000    -2.348000000
H     2.212000000     5.251000000    -2.670000000
H     0.546000000     5.798000000    -2.575000000
C     0.754000000     3.749000000    -3.116000000
C     1.791000000     2.882000000    -3.617000000
H     2.796000000     3.128000000    -3.282000000
C    -0.538000000     3.214000000    -3.182000000
C    -0.789000000     2.125000000    -3.995000000
H    -1.823000000     1.789000000    -4.026000000
C     0.224000000     1.454000000    -4.584000000
O    -0.173000000     0.175000000    -5.006000000
C     0.011000000    -0.936000000    -4.127000000
C    -1.240000000    -1.841000000    -3.984000000
C    -1.125000000    -3.141000000    -3.621000000
H    -0.195000000    -3.559000000    -3.245000000
C    -2.490000000    -1.338000000    -4.362000000
H    -2.608000000    -0.320000000    -4.723000000
O     1.163000000    -1.667000000    -4.444000000
H     0.073000000    -0.645000000    -3.069000000
C     1.573000000     1.725000000    -4.367000000
C     2.706000000     0.862000000    -4.861000000
H     3.589000000     1.481000000    -5.030000000
H     2.486000000     0.412000000    -5.832000000
C     3.029000000    -0.238000000    -3.840000000
C     4.134000000     0.046000000    -2.993000000
H     4.756000000     0.936000000    -3.038000000
C     2.308000000    -1.501000000    -3.723000000
C     2.655000000    -2.334000000    -2.724000000
H     2.187000000    -3.309000000    -2.617000000
C     3.763000000    -2.054000000    -1.915000000
O     4.058000000    -2.974000000    -0.890000000
C     3.486000000    -2.628000000     0.359000000
C     2.825000000    -3.906000000     0.921000000
C     2.210000000    -4.885000000     0.143000000
H     2.227000000    -4.704000000    -0.929000000
C     2.758000000    -4.097000000     2.297000000
H     3.137000000    -3.330000000     2.968000000
O     4.481000000    -1.948000000     1.216000000
H     2.599000000    -1.986000000     0.245000000
C     4.449000000    -0.876000000    -2.022000000
C     5.513000000    -0.538000000    -0.999000000
H     6.242000000     0.089000000    -1.516000000
H     6.068000000    -1.447000000    -0.757000000
C     4.889000000     0.183000000     0.232000000
C     4.327000000    -0.641000000     1.230000000
C     3.790000000    -0.097000000     2.371000000
H     3.275000000    -0.746000000     3.074000000
C     3.526000000     1.251000000     2.421000000
O     2.845000000     1.760000000     3.526000000
C     1.436000000     2.103000000     3.291000000
H     1.153000000     1.699000000     2.307000000
C     0.535000000     1.565000000     4.380000000
C    -0.706000000     2.189000000     4.671000000
H    -1.032000000     3.117000000     4.209000000
C     0.873000000     0.282000000     4.883000000
H     1.737000000    -0.226000000     4.462000000
C    -0.002000000    -0.303000000     5.758000000
O     0.306000000    -1.483000000     6.461000000
C    -1.274000000     0.265000000     6.019000000
H    -1.994000000    -0.255000000     6.646000000
C    -1.624000000     1.488000000     5.442000000
O    -2.925000000     1.923000000     5.478000000
C    -3.440000000     3.101000000     4.979000000
C    -3.984000000     3.151000000     3.678000000
H    -4.020000000     2.291000000     3.015000000
C    -3.773000000     4.056000000     5.945000000
H    -3.466000000     3.847000000     6.967000000
C    -4.432000000     5.204000000     5.568000000
H    -4.440000000     6.043000000     6.260000000
C    -4.807000000     5.347000000     4.204000000
H    -5.262000000     6.259000000     3.828000000
C    -4.663000000     4.311000000     3.313000000
O    -5.314000000     4.411000000     2.114000000
C    -4.913000000     3.834000000     0.940000000
C    -5.729000000     2.868000000     0.334000000
H    -6.737000000     2.594000000     0.632000000
C    -5.278000000     2.249000000    -0.805000000
O    -6.142000000     1.442000000    -1.464000000
C    -5.932000000     1.105000000    -2.746000000
C    -5.645000000    -0.226000000    -3.067000000
H    -5.447000000    -0.911000000    -2.247000000
C    -6.114000000     2.123000000    -3.706000000
H    -6.410000000     3.123000000    -3.398000000
C    -5.938000000     1.799000000    -5.077000000
H    -6.011000000     2.583000000    -5.826000000
C    -5.543000000     0.464000000    -5.405000000
H    -5.216000000     0.250000000    -6.420000000
C    -5.358000000    -0.490000000    -4.425000000
O    -4.822000000    -1.668000000    -4.898000000
C    -3.608000000    -2.140000000    -4.385000000
C    -3.512000000    -3.482000000    -4.068000000
H    -4.342000000    -4.180000000    -4.151000000
C    -2.301000000    -3.985000000    -3.635000000
O    -2.261000000    -5.303000000    -3.247000000
C    -1.065000000    -5.894000000    -3.043000000
C    -0.663000000    -6.094000000    -1.716000000
H    -1.262000000    -5.770000000    -0.869000000
C    -0.283000000    -6.459000000    -4.054000000
H    -0.725000000    -6.420000000    -5.046000000
C     1.021000000    -6.904000000    -3.881000000
H     1.700000000    -7.077000000    -4.712000000
C     1.443000000    -7.028000000    -2.557000000
H     2.456000000    -7.405000000    -2.438000000
C     0.533000000    -6.745000000    -1.459000000
O     0.989000000    -6.928000000    -0.087000000
C     1.572000000    -6.022000000     0.684000000
C     1.534000000    -6.156000000     2.067000000
H     1.112000000    -7.038000000     2.542000000
C     2.118000000    -5.209000000     2.890000000
O     2.104000000    -5.458000000     4.234000000
C     2.234000000    -4.405000000     5.153000000
C     3.338000000    -4.368000000     5.967000000
H     4.078000000    -5.153000000     5.838000000
C     3.472000000    -3.305000000     6.862000000
H     4.365000000    -3.243000000     7.479000000
C     2.440000000    -2.350000000     6.993000000
H     2.593000000    -1.568000000     7.733000000
C     1.315000000    -2.410000000     6.267000000
C     1.236000000    -3.453000000     5.346000000
H     0.332000000    -3.436000000     4.743000000
C    -1.523000000    -0.316000000     2.012000000
H    -2.038000000     0.143000000     2.852000000
C    -0.832000000     0.422000000     1.093000000
H    -0.926000000     1.504000000     1.135000000
C    -0.171000000    -0.170000000     0.050000000
C     0.717000000     0.649000000    -0.756000000
H     0.151000000     1.429000000    -1.269000000
H     1.509000000     1.125000000    -0.174000000
H     1.139000000     0.060000000    -1.572000000
C    -0.359000000    -1.571000000    -0.132000000
H     0.070000000    -2.077000000    -0.993000000
C    -1.109000000    -2.341000000     0.748000000
H    -1.226000000    -3.412000000     0.600000000
C    -1.563000000    -1.740000000     1.915000000
C    -2.193000000    -2.578000000     2.966000000
O    -2.145000000    -3.792000000     2.870000000
O    -2.821000000    -2.089000000     3.893000000
O    -4.411000000    -8.238000000     3.871000000
H    -3.491000000    -8.215000000     3.605000000
H    -4.732000000    -7.353000000     3.697000000
O    -3.336000000    -5.823000000     1.893000000
H    -2.688000000    -6.524000000     1.821000000
H    -2.821000000    -5.041000000     2.092000000
O    -3.024000000    -3.670000000     6.103000000
H    -2.703000000    -4.449000000     5.649000000
H    -2.845000000    -2.950000000     5.499000000
O    -5.923000000    -2.397000000     1.331000000
H    -5.483000000    -3.191000000     1.634000000
H    -5.397000000    -2.101000000     0.588000000
O    -2.154000000    -7.982000000     1.312000000
H    -2.625000000    -8.575000000     0.726000000
H    -1.239000000    -8.253000000     1.242000000
O    -5.395000000    -2.080000000     8.007000000
H    -4.699000000    -1.695000000     7.475000000
H    -5.775000000    -2.758000000     7.448000000
O    -3.995000000    -1.841000000    -0.373000000
H    -3.094000000    -1.520000000    -0.324000000
H    -3.925000000    -2.680000000    -0.828000000
O    -3.940000000    -5.895000000     8.062000000
H    -4.804000000    -5.608000000     8.359000000
H    -3.586000000    -5.141000000     7.589000000
O    -4.819000000    -4.016000000     3.595000000
H    -4.408000000    -4.824000000     3.286000000
H    -4.086000000    -3.456000000     3.849000000
O    -3.484000000    -4.328000000    -1.071000000
H    -3.247000000    -4.818000000    -1.858000000
H    -3.750000000    -4.999000000    -0.442000000
O    -7.537000000    -2.296000000    -0.670000000
H    -7.066000000    -2.277000000     0.163000000
H    -8.379000000    -1.883000000    -0.478000000
O    -2.183000000    -5.742000000     4.803000000
H    -1.653000000    -6.494000000     4.539000000
H    -2.121000000    -5.135000000     4.065000000
O    -5.895000000    -0.118000000     3.047000000
H    -5.444000000    -0.266000000     3.878000000
H    -5.676000000    -0.884000000     2.516000000
O    -4.802000000    -0.880000000     5.362000000
H    -5.452000000    -1.579000000     5.294000000
H    -4.109000000    -1.136000000     4.754000000
O    -5.511000000     1.115000000     7.126000000
H    -5.222000000     0.441000000     6.511000000
H    -4.754000000     1.265000000     7.691000000
O    -5.838000000    -6.758000000     1.589000000
H    -6.125000000    -6.540000000     0.703000000
H    -4.930000000    -6.457000000     1.628000000
O    -1.130000000    -8.082000000     4.060000000
H    -0.980000000    -8.853000000     4.607000000
H    -1.284000000    -8.436000000     3.184000000
O    -6.494000000    -2.950000000     5.330000000
H    -5.958000000    -3.501000000     4.760000000
H    -7.275000000    -2.757000000     4.812000000
O    -1.170000000    -3.661000000     8.170000000
H    -1.667000000    -3.392000000     7.397000000
H    -1.405000000    -4.580000000     8.297000000
