218
-1473.28550
C    -2.856000000    -4.375000000     1.245000000
H    -2.361000000    -5.024000000     0.527000000
C    -3.427000000    -3.278000000     0.572000000
C    -4.126000000    -2.358000000     1.345000000
H    -4.427000000    -1.463000000     0.808000000
C    -3.008000000    -2.992000000    -0.862000000
O    -2.558000000    -4.071000000    -1.626000000
H    -2.156000000    -2.295000000    -0.849000000
O    -4.047000000    -2.363000000    -1.544000000
C    -3.738000000    -1.220000000    -2.300000000
C    -4.026000000    -0.041000000    -1.696000000
H    -4.577000000    -0.107000000    -0.761000000
C    -3.768000000     1.168000000    -2.350000000
O    -3.860000000     2.322000000    -1.580000000
C    -3.090000000     1.175000000    -3.587000000
C    -2.625000000     2.473000000    -4.228000000
H    -2.509000000     2.325000000    -5.304000000
C    -1.271000000     2.957000000    -3.718000000
C    -0.113000000     2.534000000    -4.407000000
H    -0.293000000     1.985000000    -5.328000000
H    -3.451000000     3.176000000    -4.101000000
C    -2.774000000    -0.052000000    -4.155000000
H    -2.279000000    -0.071000000    -5.123000000
C    -3.085000000    -1.277000000    -3.522000000
C    -2.710000000    -2.615000000    -4.185000000
H    -2.669000000    -2.539000000    -5.274000000
H    -3.537000000    -3.324000000    -4.108000000
C    -1.409000000    -3.194000000    -3.649000000
C    -0.186000000    -2.838000000    -4.221000000
H    -0.187000000    -2.344000000    -5.189000000
C    -1.448000000    -3.855000000    -2.451000000
C    -0.294000000    -4.286000000    -1.838000000
H    -0.286000000    -4.659000000    -0.818000000
C     0.971000000    -3.932000000    -2.424000000
O     2.107000000    -4.144000000    -1.754000000
C     2.588000000    -3.013000000    -1.104000000
C     2.963000000    -3.380000000     0.322000000
C     3.900000000    -2.576000000     0.995000000
H     4.453000000    -1.816000000     0.450000000
C     2.365000000    -4.424000000     0.996000000
H     1.577000000    -5.042000000     0.574000000
O     3.644000000    -2.418000000    -1.854000000
H     1.793000000    -2.259000000    -1.006000000
C     1.005000000    -3.214000000    -3.644000000
C     2.262000000    -2.759000000    -4.392000000
H     2.043000000    -2.699000000    -5.460000000
H     3.025000000    -3.494000000    -4.126000000
C     2.686000000    -1.351000000    -3.870000000
C     2.431000000    -0.144000000    -4.543000000
H     1.844000000    -0.188000000    -5.457000000
C     3.389000000    -1.290000000    -2.660000000
C     3.816000000    -0.116000000    -2.100000000
H     4.248000000    -0.140000000    -1.103000000
C     3.662000000     1.068000000    -2.838000000
O     3.962000000     2.177000000    -2.130000000
C     2.863000000     2.732000000    -1.392000000
C     3.377000000     3.125000000     0.035000000
C     4.635000000     2.612000000     0.582000000
H     5.281000000     1.938000000     0.026000000
C     2.700000000     4.026000000     0.817000000
H     1.833000000     4.523000000     0.388000000
O     2.431000000     3.883000000    -2.147000000
H     2.088000000     1.954000000    -1.328000000
C     2.844000000     1.070000000    -3.994000000
C     2.433000000     2.414000000    -4.572000000
H     2.240000000     2.373000000    -5.646000000
H     3.148000000     3.224000000    -4.415000000
C     1.120000000     2.916000000    -3.906000000
C     1.224000000     3.726000000    -2.755000000
C     0.063000000     4.159000000    -2.128000000
H     0.125000000     4.747000000    -1.216000000
C    -1.206000000     3.767000000    -2.561000000
O    -2.358000000     4.075000000    -1.830000000
C    -2.776000000     2.989000000    -0.924000000
H    -1.899000000     2.350000000    -0.743000000
C    -3.234000000     3.588000000     0.387000000
C    -4.155000000     2.963000000     1.231000000
H    -4.445000000     1.951000000     0.962000000
C    -2.613000000     4.768000000     0.926000000
H    -1.889000000     5.322000000     0.334000000
C    -2.976000000     5.324000000     2.169000000
O    -2.350000000     6.461000000     2.552000000
C    -3.999000000     4.765000000     2.904000000
H    -4.289000000     5.187000000     3.863000000
C    -4.625000000     3.609000000     2.449000000
O    -5.510000000     3.015000000     3.355000000
C    -5.961000000     1.804000000     3.122000000
C    -5.203000000     0.661000000     3.417000000
H    -4.194000000     0.825000000     3.788000000
C    -7.323000000     1.590000000     2.655000000
H    -8.097000000     2.351000000     2.598000000
C    -7.752000000     0.319000000     2.381000000
H    -8.756000000     0.151000000     1.999000000
C    -6.940000000    -0.805000000     2.621000000
H    -7.243000000    -1.828000000     2.411000000
C    -5.675000000    -0.609000000     3.105000000
O    -4.921000000    -1.688000000     3.542000000
C    -4.327000000    -2.581000000     2.740000000
C    -3.875000000    -3.756000000     3.342000000
H    -4.110000000    -3.944000000     4.386000000
C    -3.060000000    -4.621000000     2.621000000
O    -2.391000000    -5.632000000     3.309000000
C    -1.228000000    -6.293000000     2.888000000
C    -0.013000000    -5.659000000     2.985000000
H    -0.074000000    -4.654000000     3.394000000
C    -1.262000000    -7.644000000     2.560000000
H    -2.274000000    -8.028000000     2.663000000
C    -0.133000000    -8.438000000     2.397000000
H    -0.233000000    -9.513000000     2.270000000
C     1.089000000    -7.765000000     2.546000000
H     2.033000000    -8.301000000     2.511000000
C     1.150000000    -6.385000000     2.756000000
O     2.355000000    -5.805000000     3.008000000
C     2.822000000    -4.723000000     2.275000000
C     3.865000000    -4.056000000     2.858000000
H     4.225000000    -4.482000000     3.791000000
C     4.307000000    -2.921000000     2.290000000
O     5.175000000    -2.139000000     3.025000000
C     5.964000000    -1.140000000     2.462000000
C     5.623000000     0.152000000     2.653000000
H     4.648000000     0.332000000     3.099000000
C     7.173000000    -1.551000000     1.948000000
H     7.435000000    -2.604000000     1.886000000
C     8.154000000    -0.573000000     1.598000000
H     9.110000000    -0.911000000     1.208000000
C     7.751000000     0.797000000     1.736000000
H     8.444000000     1.577000000     1.430000000
C     6.540000000     1.131000000     2.282000000
O     6.155000000     2.451000000     2.411000000
C     4.970000000     2.932000000     1.887000000
C     4.202000000     3.769000000     2.654000000
H     4.532000000     4.116000000     3.630000000
C     3.033000000     4.264000000     2.128000000
O     2.179000000     4.996000000     2.963000000
C     1.301000000     6.002000000     2.636000000
C     1.711000000     7.096000000     1.794000000
H     2.774000000     7.257000000     1.631000000
C     0.768000000     8.011000000     1.387000000
H     1.150000000     8.896000000     0.886000000
C    -0.604000000     7.807000000     1.635000000
H    -1.345000000     8.497000000     1.240000000
C    -1.026000000     6.701000000     2.358000000
C    -0.016000000     5.794000000     2.826000000
H    -0.277000000     4.884000000     3.361000000
C    -1.102000000    -0.348000000     2.257000000
H    -2.041000000    -0.306000000     2.803000000
C    -1.195000000    -0.213000000     0.895000000
H    -2.198000000    -0.224000000     0.476000000
C    -0.018000000    -0.217000000     0.154000000
C    -0.066000000    -0.275000000    -1.406000000
H    -0.617000000     0.598000000    -1.762000000
H     0.920000000    -0.023000000    -1.801000000
H    -0.400000000    -1.244000000    -1.783000000
C     1.208000000    -0.340000000     0.771000000
H     2.131000000    -0.367000000     0.198000000
C     1.323000000    -0.510000000     2.184000000
H     2.304000000    -0.690000000     2.617000000
C     0.168000000    -0.487000000     2.959000000
C     0.134000000    -0.839000000     4.476000000
O     1.262000000    -1.170000000     4.912000000
O    -0.915000000    -0.816000000     5.020000000
O     0.425000000     2.300000000     2.042000000
H    -0.446000000     2.327000000     2.438000000
H     0.506000000     1.408000000     1.704000000
O    -2.049000000    -6.209000000     6.160000000
H    -2.683000000    -5.827000000     6.767000000
H    -2.050000000    -5.617000000     5.408000000
O    -3.736000000     2.365000000     6.271000000
H    -3.523000000     2.636000000     7.163000000
H    -4.427000000     2.967000000     5.996000000
O     0.324000000     2.417000000     9.324000000
H     0.358000000     2.483000000    10.278000000
H    -0.398000000     1.812000000     9.152000000
O     5.643000000     0.239000000     6.494000000
H     6.154000000    -0.555000000     6.340000000
H     4.919000000     0.183000000     5.870000000
O    -1.035000000    -2.004000000     9.806000000
H    -0.846000000    -2.917000000     9.591000000
H    -0.785000000    -1.516000000     9.021000000
O     1.288000000     2.622000000     4.752000000
H     0.370000000     2.409000000     4.921000000
H     1.345000000     2.695000000     3.799000000
O     0.196000000     4.085000000     7.135000000
H     0.223000000     3.156000000     7.363000000
H     0.096000000     4.535000000     7.974000000
O     2.572000000    -6.567000000     5.828000000
H     1.707000000    -6.772000000     6.183000000
H     2.446000000    -5.751000000     5.344000000
O    -3.288000000    -0.412000000     6.302000000
H    -3.546000000     0.493000000     6.126000000
H    -2.405000000    -0.484000000     5.940000000
O     1.895000000    -3.592000000     5.765000000
H     1.739000000    -2.749000000     5.340000000
H     1.381000000    -3.553000000     6.571000000
O    -3.956000000    -2.617000000     8.547000000
H    -4.699000000    -2.519000000     7.951000000
H    -3.213000000    -2.808000000     7.975000000
O     4.277000000    -2.438000000     6.549000000
H     4.262000000    -2.392000000     7.505000000
H     3.500000000    -2.948000000     6.321000000
O     3.186000000     0.841000000     5.370000000
H     2.623000000     1.560000000     5.084000000
H     2.656000000     0.055000000     5.236000000
O     0.341000000    -4.392000000     8.411000000
H     0.208000000    -5.107000000     9.034000000
H     1.289000000    -4.259000000     8.399000000
O     3.055000000    -0.124000000     8.154000000
H     3.184000000    -0.820000000     8.799000000
H     3.629000000    -0.363000000     7.426000000
O    -1.344000000     1.821000000     4.589000000
H    -1.153000000     0.885000000     4.659000000
H    -2.023000000     1.977000000     5.244000000
O     0.544000000    -1.160000000     7.535000000
H     0.487000000    -1.151000000     6.580000000
H     1.198000000    -0.492000000     7.742000000
O    -1.556000000    -3.447000000     6.696000000
H    -0.848000000    -3.651000000     7.307000000
H    -1.327000000    -2.588000000     6.343000000
