218
-1474.37633
C    -3.760000000    -1.890000000     3.516000000
H    -3.502000000    -2.942000000     3.431000000
C    -4.021000000    -1.209000000     2.340000000
C    -4.279000000     0.178000000     2.455000000
H    -4.453000000     0.701000000     1.518000000
C    -3.735000000    -1.869000000     0.974000000
O    -3.731000000    -3.272000000     1.075000000
H    -2.821000000    -1.458000000     0.521000000
O    -4.769000000    -1.624000000    -0.026000000
C    -4.309000000    -1.212000000    -1.296000000
C    -4.197000000     0.148000000    -1.603000000
H    -4.490000000     0.924000000    -0.900000000
C    -3.678000000     0.497000000    -2.838000000
O    -3.460000000     1.826000000    -3.026000000
C    -3.224000000    -0.472000000    -3.773000000
C    -2.580000000     0.000000000    -5.103000000
H    -2.649000000    -0.834000000    -5.804000000
C    -1.126000000     0.417000000    -4.857000000
C    -0.117000000    -0.565000000    -4.944000000
H    -0.367000000    -1.592000000    -5.198000000
H    -3.167000000     0.847000000    -5.462000000
C    -3.248000000    -1.799000000    -3.396000000
H    -2.880000000    -2.554000000    -4.086000000
C    -3.857000000    -2.168000000    -2.155000000
C    -3.873000000    -3.691000000    -1.808000000
H    -3.751000000    -4.198000000    -2.767000000
H    -4.877000000    -3.842000000    -1.405000000
C    -2.581000000    -4.046000000    -0.927000000
C    -1.439000000    -4.574000000    -1.559000000
H    -1.391000000    -4.707000000    -2.636000000
C    -2.655000000    -3.931000000     0.523000000
C    -1.547000000    -4.314000000     1.223000000
H    -1.567000000    -4.133000000     2.294000000
C    -0.375000000    -4.697000000     0.572000000
O     0.789000000    -4.682000000     1.327000000
C     1.693000000    -3.532000000     1.178000000
C     2.212000000    -3.061000000     2.577000000
C     3.290000000    -2.205000000     2.627000000
H     3.894000000    -2.060000000     1.735000000
C     1.539000000    -3.358000000     3.709000000
H     0.663000000    -3.996000000     3.797000000
O     2.813000000    -3.727000000     0.329000000
H     1.094000000    -2.716000000     0.746000000
C    -0.318000000    -4.866000000    -0.824000000
C     1.018000000    -5.243000000    -1.498000000
H     0.839000000    -5.857000000    -2.383000000
H     1.514000000    -5.822000000    -0.716000000
C     1.865000000    -3.993000000    -1.905000000
C     1.650000000    -3.416000000    -3.194000000
H     0.897000000    -3.837000000    -3.855000000
C     2.784000000    -3.438000000    -1.013000000
C     3.622000000    -2.410000000    -1.490000000
H     4.271000000    -1.931000000    -0.762000000
C     3.420000000    -1.813000000    -2.714000000
O     4.075000000    -0.661000000    -2.885000000
C     3.382000000     0.619000000    -2.651000000
C     4.280000000     1.622000000    -1.871000000
C     5.413000000     1.196000000    -1.108000000
H     5.785000000     0.175000000    -1.123000000
C     3.885000000     2.997000000    -1.819000000
H     2.946000000     3.251000000    -2.303000000
O     2.935000000     1.139000000    -3.928000000
H     2.515000000     0.379000000    -2.019000000
C     2.361000000    -2.201000000    -3.547000000
C     2.201000000    -1.497000000    -4.909000000
H     1.759000000    -2.169000000    -5.648000000
H     3.084000000    -1.112000000    -5.423000000
C     1.229000000    -0.326000000    -4.675000000
C     1.636000000     0.983000000    -4.307000000
C     0.632000000     1.969000000    -4.216000000
H     0.959000000     2.953000000    -3.890000000
C    -0.777000000     1.734000000    -4.471000000
O    -1.649000000     2.675000000    -4.016000000
C    -2.197000000     2.437000000    -2.712000000
H    -1.594000000     1.825000000    -2.026000000
C    -2.219000000     3.762000000    -1.967000000
C    -3.349000000     4.077000000    -1.210000000
H    -4.174000000     3.370000000    -1.181000000
C    -1.231000000     4.765000000    -2.065000000
H    -0.356000000     4.561000000    -2.677000000
C    -1.304000000     5.932000000    -1.363000000
O    -0.212000000     6.786000000    -1.261000000
C    -2.385000000     6.229000000    -0.624000000
H    -2.384000000     7.100000000     0.027000000
C    -3.464000000     5.252000000    -0.488000000
O    -4.505000000     5.602000000     0.299000000
C    -5.072000000     4.595000000     1.084000000
C    -4.406000000     3.892000000     2.136000000
H    -3.358000000     4.081000000     2.357000000
C    -6.352000000     4.268000000     0.701000000
H    -6.694000000     4.730000000    -0.222000000
C    -7.044000000     3.205000000     1.293000000
H    -8.068000000     2.910000000     1.077000000
C    -6.402000000     2.567000000     2.316000000
H    -6.823000000     1.668000000     2.760000000
C    -5.100000000     2.879000000     2.777000000
O    -4.580000000     2.151000000     3.883000000
C    -4.336000000     0.820000000     3.706000000
C    -4.035000000     0.090000000     4.848000000
H    -4.106000000     0.600000000     5.806000000
C    -3.711000000    -1.273000000     4.772000000
O    -3.578000000    -1.976000000     5.929000000
C    -2.558000000    -2.910000000     6.180000000
C    -1.214000000    -2.496000000     6.031000000
H    -0.871000000    -1.499000000     5.766000000
C    -2.804000000    -4.188000000     6.580000000
H    -3.789000000    -4.600000000     6.782000000
C    -1.734000000    -5.050000000     6.815000000
H    -1.958000000    -6.043000000     7.196000000
C    -0.414000000    -4.644000000     6.642000000
H     0.395000000    -5.330000000     6.881000000
C    -0.123000000    -3.371000000     6.285000000
O     1.192000000    -3.046000000     6.082000000
C     1.906000000    -2.858000000     4.912000000
C     3.045000000    -2.097000000     5.017000000
H     3.334000000    -1.692000000     5.984000000
C     3.784000000    -1.740000000     3.846000000
O     4.928000000    -1.011000000     3.942000000
C     5.812000000    -0.828000000     2.858000000
C     5.872000000     0.339000000     2.078000000
H     5.092000000     1.085000000     2.210000000
C     6.773000000    -1.847000000     2.706000000
H     6.762000000    -2.678000000     3.406000000
C     7.753000000    -1.698000000     1.677000000
H     8.482000000    -2.487000000     1.510000000
C     7.834000000    -0.526000000     1.031000000
H     8.721000000    -0.422000000     0.411000000
C     6.908000000     0.502000000     1.235000000
O     7.102000000     1.727000000     0.473000000
C     6.137000000     2.203000000    -0.361000000
C     5.758000000     3.558000000    -0.397000000
H     6.264000000     4.301000000     0.215000000
C     4.616000000     3.964000000    -1.110000000
O     4.282000000     5.271000000    -1.075000000
C     3.221000000     5.779000000    -1.755000000
C     3.418000000     6.038000000    -3.146000000
H     4.410000000     5.965000000    -3.585000000
C     2.325000000     6.609000000    -3.880000000
H     2.492000000     6.787000000    -4.939000000
C     1.075000000     6.852000000    -3.270000000
H     0.249000000     7.228000000    -3.869000000
C     1.002000000     6.613000000    -1.853000000
C     2.024000000     6.006000000    -1.098000000
H     1.801000000     5.650000000    -0.095000000
C    -0.310000000     2.276000000     1.334000000
H    -0.290000000     3.340000000     1.114000000
C    -0.096000000     1.388000000     0.247000000
H     0.142000000     1.877000000    -0.695000000
C    -0.211000000     0.032000000     0.409000000
C    -0.047000000    -0.906000000    -0.801000000
H    -0.748000000    -0.593000000    -1.578000000
H     0.965000000    -1.090000000    -1.168000000
H    -0.436000000    -1.920000000    -0.685000000
C    -0.463000000    -0.493000000     1.687000000
H    -0.564000000    -1.567000000     1.814000000
C    -0.468000000     0.368000000     2.792000000
H    -0.555000000     0.062000000     3.831000000
C    -0.496000000     1.790000000     2.602000000
C    -0.726000000     2.647000000     3.804000000
O    -0.451000000     2.253000000     4.951000000
O    -1.171000000     3.740000000     3.641000000
O    -0.043000000     4.215000000     6.723000000
H    -0.359000000     3.533000000     6.130000000
H     0.845000000     4.403000000     6.419000000
O     1.119000000     5.082000000     3.049000000
H     1.690000000     5.044000000     3.816000000
H     0.268000000     4.781000000     3.368000000
O     2.732000000     7.178000000     1.959000000
H     2.091000000     7.719000000     1.498000000
H     2.293000000     6.336000000     2.078000000
O     4.184000000     3.589000000     6.077000000
H     4.560000000     3.458000000     6.947000000
H     3.506000000     2.917000000     6.005000000
O     2.328000000     1.802000000     5.750000000
H     2.147000000     1.204000000     6.475000000
H     1.465000000     2.024000000     5.401000000
O     0.138000000     8.697000000     1.440000000
H    -0.606000000     8.095000000     1.431000000
H    -0.169000000     9.450000000     1.946000000
O    -1.889000000     6.116000000     7.215000000
H    -1.293000000     5.385000000     7.379000000
H    -1.911000000     6.199000000     6.262000000
O     5.090000000     3.727000000     3.002000000
H     4.766000000     3.316000000     2.200000000
H     4.307000000     3.853000000     3.539000000
O     0.258000000     3.265000000     9.468000000
H     0.949000000     3.863000000     9.753000000
H     0.121000000     3.480000000     8.545000000
O    -3.311000000    -0.622000000     8.677000000
H    -2.972000000     0.038000000     8.072000000
H    -3.009000000    -0.334000000     9.539000000
O     2.027000000     5.262000000     5.619000000
H     2.282000000     6.183000000     5.560000000
H     2.845000000     4.799000000     5.804000000
O    -3.230000000     4.316000000     5.072000000
H    -3.725000000     3.502000000     4.979000000
H    -2.456000000     4.189000000     4.524000000
O     1.171000000     0.108000000     7.583000000
H     1.340000000    -0.833000000     7.542000000
H     1.693000000     0.413000000     8.325000000
O    -1.349000000     5.867000000     1.966000000
H    -1.343000000     5.004000000     2.379000000
H    -2.266000000     6.018000000     1.738000000
O    -0.745000000     7.229000000     4.352000000
H     0.195000000     7.399000000     4.292000000
H    -0.957000000     6.773000000     3.537000000
O    -4.206000000     6.737000000     5.231000000
H    -3.907000000     5.829000000     5.283000000
H    -3.861000000     7.055000000     4.397000000
O     3.033000000     2.609000000     1.273000000
H     2.989000000     2.984000000     0.393000000
H     2.127000000     2.381000000     1.482000000
O    -1.636000000     1.346000000     7.123000000
H    -0.803000000     0.995000000     7.437000000
H    -1.402000000     1.871000000     6.359000000
O    -3.052000000     3.597000000     7.837000000
H    -2.396000000     2.901000000     7.876000000
H    -2.849000000     4.073000000     7.032000000
