218
-1475.15390
C    -3.222000000    -2.315000000     3.443000000
H    -2.902000000    -3.353000000     3.484000000
C    -3.463000000    -1.588000000     2.298000000
C    -3.900000000    -0.284000000     2.358000000
H    -4.009000000     0.316000000     1.458000000
C    -3.232000000    -2.337000000     0.942000000
O    -3.171000000    -3.782000000     1.014000000
H    -2.367000000    -1.903000000     0.418000000
O    -4.326000000    -2.068000000     0.031000000
C    -3.898000000    -1.778000000    -1.301000000
C    -3.947000000    -0.399000000    -1.637000000
H    -4.268000000     0.291000000    -0.862000000
C    -3.585000000     0.019000000    -2.914000000
O    -3.662000000     1.385000000    -3.129000000
C    -3.056000000    -0.851000000    -3.821000000
C    -2.453000000    -0.317000000    -5.077000000
H    -2.446000000    -1.096000000    -5.843000000
C    -1.088000000     0.237000000    -4.744000000
C     0.021000000    -0.659000000    -4.864000000
H    -0.161000000    -1.708000000    -5.084000000
H    -2.938000000     0.530000000    -5.568000000
C    -3.003000000    -2.185000000    -3.498000000
H    -2.645000000    -2.878000000    -4.254000000
C    -3.463000000    -2.691000000    -2.299000000
C    -3.339000000    -4.192000000    -1.949000000
H    -3.326000000    -4.809000000    -2.850000000
H    -4.201000000    -4.476000000    -1.343000000
C    -2.104000000    -4.469000000    -1.069000000
C    -0.942000000    -4.840000000    -1.742000000
H    -0.948000000    -4.937000000    -2.825000000
C    -2.216000000    -4.395000000     0.319000000
C    -1.054000000    -4.559000000     1.030000000
H    -1.071000000    -4.341000000     2.095000000
C     0.122000000    -4.758000000     0.367000000
O     1.268000000    -4.721000000     1.173000000
C     2.049000000    -3.524000000     1.191000000
C     2.424000000    -3.009000000     2.576000000
C     3.574000000    -2.152000000     2.697000000
H     4.200000000    -1.963000000     1.828000000
C     1.617000000    -3.266000000     3.746000000
H     0.695000000    -3.840000000     3.786000000
O     3.190000000    -3.636000000     0.319000000
H     1.425000000    -2.731000000     0.752000000
C     0.245000000    -4.956000000    -1.050000000
C     1.584000000    -5.054000000    -1.741000000
H     1.396000000    -5.533000000    -2.704000000
H     2.259000000    -5.662000000    -1.134000000
C     2.224000000    -3.713000000    -1.968000000
C     1.971000000    -3.019000000    -3.185000000
H     1.438000000    -3.500000000    -4.001000000
C     3.033000000    -3.082000000    -0.960000000
C     3.697000000    -1.917000000    -1.214000000
H     4.184000000    -1.393000000    -0.395000000
C     3.462000000    -1.258000000    -2.387000000
O     4.007000000     0.008000000    -2.636000000
C     3.177000000     1.158000000    -2.541000000
C     3.791000000     2.262000000    -1.678000000
C     4.753000000     1.941000000    -0.742000000
H     5.072000000     0.910000000    -0.610000000
C     3.415000000     3.601000000    -1.865000000
H     2.703000000     3.884000000    -2.637000000
O     2.759000000     1.662000000    -3.838000000
H     2.262000000     0.853000000    -2.012000000
C     2.700000000    -1.868000000    -3.375000000
C     2.544000000    -1.139000000    -4.751000000
H     2.288000000    -1.926000000    -5.463000000
H     3.445000000    -0.605000000    -5.061000000
C     1.345000000    -0.221000000    -4.649000000
C     1.582000000     1.136000000    -4.336000000
C     0.495000000     1.995000000    -4.341000000
H     0.756000000     3.026000000    -4.114000000
C    -0.793000000     1.556000000    -4.471000000
O    -1.816000000     2.426000000    -4.173000000
C    -2.500000000     2.211000000    -2.933000000
H    -1.775000000     1.668000000    -2.308000000
C    -2.744000000     3.489000000    -2.163000000
C    -3.874000000     3.629000000    -1.366000000
H    -4.654000000     2.875000000    -1.432000000
C    -1.752000000     4.475000000    -2.095000000
H    -0.844000000     4.294000000    -2.664000000
C    -1.917000000     5.644000000    -1.329000000
O    -1.042000000     6.744000000    -1.461000000
C    -3.086000000     5.801000000    -0.633000000
H    -3.195000000     6.679000000    -0.002000000
C    -4.081000000     4.815000000    -0.657000000
O    -5.097000000     4.938000000     0.199000000
C    -5.558000000     3.914000000     0.974000000
C    -4.676000000     3.197000000     1.794000000
H    -3.605000000     3.376000000     1.832000000
C    -6.949000000     3.662000000     1.014000000
H    -7.622000000     4.284000000     0.429000000
C    -7.400000000     2.641000000     1.886000000
H    -8.450000000     2.366000000     1.937000000
C    -6.549000000     1.922000000     2.714000000
H    -6.779000000     1.148000000     3.441000000
C    -5.243000000     2.193000000     2.654000000
O    -4.458000000     1.685000000     3.645000000
C    -4.068000000     0.346000000     3.612000000
C    -3.721000000    -0.304000000     4.763000000
H    -3.698000000     0.229000000     5.710000000
C    -3.353000000    -1.622000000     4.679000000
O    -3.147000000    -2.249000000     5.892000000
C    -2.104000000    -3.181000000     6.060000000
C    -0.797000000    -2.747000000     5.931000000
H    -0.624000000    -1.783000000     5.460000000
C    -2.299000000    -4.401000000     6.651000000
H    -3.320000000    -4.730000000     6.830000000
C    -1.297000000    -5.170000000     7.118000000
H    -1.516000000    -6.164000000     7.499000000
C     0.049000000    -4.740000000     6.977000000
H     0.868000000    -5.340000000     7.365000000
C     0.280000000    -3.541000000     6.372000000
O     1.503000000    -3.099000000     6.208000000
C     2.083000000    -2.810000000     4.992000000
C     3.204000000    -2.001000000     5.015000000
H     3.452000000    -1.538000000     5.967000000
C     3.979000000    -1.653000000     3.876000000
O     5.184000000    -1.023000000     4.056000000
C     5.913000000    -0.509000000     3.051000000
C     5.657000000     0.794000000     2.522000000
H     4.847000000     1.390000000     2.936000000
C     7.037000000    -1.128000000     2.589000000
H     7.342000000    -2.073000000     3.032000000
C     7.817000000    -0.544000000     1.592000000
H     8.779000000    -0.911000000     1.244000000
C     7.444000000     0.632000000     1.003000000
H     8.056000000     1.059000000     0.212000000
C     6.442000000     1.360000000     1.523000000
O     6.131000000     2.592000000     1.063000000
C     5.239000000     2.945000000     0.040000000
C     4.972000000     4.329000000    -0.146000000
H     5.352000000     5.105000000     0.513000000
C     4.001000000     4.621000000    -1.130000000
O     3.613000000     5.971000000    -1.310000000
C     2.502000000     6.232000000    -2.043000000
C     2.674000000     6.632000000    -3.362000000
H     3.645000000     6.898000000    -3.769000000
C     1.528000000     6.913000000    -4.079000000
H     1.634000000     7.114000000    -5.142000000
C     0.284000000     6.951000000    -3.445000000
H    -0.592000000     7.189000000    -4.043000000
C     0.168000000     6.634000000    -2.091000000
C     1.289000000     6.181000000    -1.447000000
H     1.235000000     5.979000000    -0.381000000
C    -0.551000000     2.457000000     1.117000000
H    -0.776000000     3.487000000     0.852000000
C    -0.271000000     1.607000000     0.068000000
H    -0.238000000     1.934000000    -0.968000000
C    -0.028000000     0.287000000     0.354000000
C    -0.013000000    -0.658000000    -0.815000000
H     0.296000000    -1.659000000    -0.507000000
H    -0.982000000    -0.724000000    -1.315000000
H     0.670000000    -0.318000000    -1.596000000
C     0.090000000    -0.094000000     1.674000000
H     0.378000000    -1.104000000     1.955000000
C    -0.236000000     0.767000000     2.735000000
H    -0.092000000     0.378000000     3.739000000
C    -0.565000000     2.084000000     2.515000000
C    -0.793000000     3.015000000     3.676000000
O    -0.725000000     2.615000000     4.825000000
O    -0.877000000     4.213000000     3.402000000
O    -1.401000000     2.348000000     9.659000000
H    -0.972000000     1.601000000     9.243000000
H    -2.272000000     2.026000000     9.892000000
O     0.874000000     5.996000000     2.498000000
H     0.689000000     6.737000000     3.075000000
H     0.227000000     5.334000000     2.742000000
O     2.370000000     7.930000000     1.576000000
H     3.129000000     7.736000000     2.126000000
H     1.741000000     7.238000000     1.783000000
O     3.639000000     2.532000000     7.808000000
H     3.332000000     2.669000000     8.703000000
H     3.506000000     1.598000000     7.649000000
O    -0.113000000    -0.268000000     8.905000000
H     0.129000000     0.129000000     8.068000000
H    -0.880000000    -0.804000000     8.702000000
O    -2.297000000     8.855000000     2.456000000
H    -1.440000000     9.226000000     2.243000000
H    -2.097000000     8.033000000     2.903000000
O    -1.684000000     4.994000000     6.168000000
H    -1.404000000     4.174000000     5.760000000
H    -0.956000000     5.597000000     6.015000000
O     2.527000000     2.026000000     4.697000000
H     2.500000000     1.626000000     3.827000000
H     2.551000000     2.968000000     4.527000000
O     1.496000000     6.457000000     7.200000000
H     1.312000000     5.575000000     6.875000000
H     2.120000000     6.818000000     6.570000000
O    -4.589000000     6.682000000     6.366000000
H    -5.067000000     6.827000000     5.550000000
H    -4.280000000     5.778000000     6.305000000
O    -4.164000000     1.720000000     9.169000000
H    -4.419000000     0.872000000     8.807000000
H    -4.116000000     2.300000000     8.409000000
O     1.221000000     3.828000000     6.799000000
H     0.675000000     3.199000000     6.327000000
H     2.104000000     3.463000000     6.750000000
O    -3.995000000     3.356000000     6.605000000
H    -4.142000000     3.131000000     5.686000000
H    -3.098000000     3.689000000     6.629000000
O     0.508000000     4.459000000     9.621000000
H    -0.186000000     3.838000000     9.841000000
H     0.798000000     4.194000000     8.748000000
O    -2.235000000     6.403000000     3.909000000
H    -1.845000000     5.683000000     3.415000000
H    -2.299000000     6.073000000     4.805000000
O     0.652000000     8.095000000     4.093000000
H     0.374000000     8.915000000     3.686000000
H     0.443000000     8.205000000     5.021000000
O     2.620000000     1.887000000     1.865000000
H     2.019000000     1.452000000     1.261000000
H     2.659000000     2.792000000     1.555000000
O     3.985000000     4.454000000     3.533000000
H     3.706000000     5.318000000     3.835000000
H     4.914000000     4.560000000     3.330000000
O     0.209000000     0.808000000     6.391000000
H     1.053000000     0.911000000     5.953000000
H    -0.405000000     1.300000000     5.847000000
