218
-1446.09500
C    -2.454000000    -0.993000000     4.250000000
H    -2.304000000    -2.029000000     3.956000000
C    -3.205000000    -0.127000000     3.446000000
C    -3.376000000     1.178000000     3.845000000
H    -3.944000000     1.866000000     3.225000000
C    -3.686000000    -0.674000000     2.119000000
O    -4.114000000    -2.054000000     2.068000000
H    -2.913000000    -0.655000000     1.337000000
O    -4.690000000     0.096000000     1.561000000
C    -4.475000000     0.680000000     0.285000000
C    -3.904000000     1.945000000     0.107000000
H    -3.540000000     2.518000000     0.956000000
C    -3.637000000     2.397000000    -1.241000000
O    -3.093000000     3.666000000    -1.310000000
C    -3.892000000     1.565000000    -2.305000000
C    -3.551000000     1.982000000    -3.720000000
H    -4.249000000     1.459000000    -4.377000000
C    -2.078000000     1.794000000    -4.090000000
C    -1.647000000     0.572000000    -4.690000000
H    -2.408000000    -0.124000000    -5.034000000
H    -3.688000000     3.064000000    -3.777000000
C    -4.506000000     0.337000000    -2.137000000
H    -4.665000000    -0.294000000    -3.008000000
C    -4.778000000    -0.158000000    -0.838000000
C    -5.448000000    -1.528000000    -0.566000000
H    -5.996000000    -1.799000000    -1.471000000
H    -6.178000000    -1.495000000     0.246000000
C    -4.412000000    -2.567000000    -0.327000000
C    -3.795000000    -3.213000000    -1.385000000
H    -4.112000000    -2.916000000    -2.382000000
C    -3.840000000    -2.761000000     0.967000000
C    -2.840000000    -3.672000000     1.128000000
H    -2.459000000    -3.891000000     2.122000000
C    -2.204000000    -4.369000000     0.041000000
O    -1.145000000    -5.194000000     0.300000000
C     0.099000000    -4.520000000     0.028000000
C     1.199000000    -4.710000000     1.157000000
C     2.587000000    -4.737000000     0.873000000
H     2.979000000    -4.756000000    -0.141000000
C     0.819000000    -4.789000000     2.521000000
H    -0.219000000    -4.766000000     2.843000000
O     0.746000000    -4.817000000    -1.220000000
H    -0.106000000    -3.440000000     0.070000000
C    -2.664000000    -4.089000000    -1.236000000
C    -1.888000000    -4.577000000    -2.524000000
H    -2.523000000    -4.673000000    -3.407000000
H    -1.614000000    -5.629000000    -2.414000000
C    -0.655000000    -3.828000000    -2.926000000
C    -0.787000000    -2.888000000    -4.007000000
H    -1.751000000    -2.931000000    -4.507000000
C     0.599000000    -3.970000000    -2.253000000
C     1.618000000    -3.153000000    -2.571000000
H     2.606000000    -3.269000000    -2.134000000
C     1.450000000    -2.127000000    -3.501000000
O     2.499000000    -1.292000000    -3.816000000
C     2.442000000     0.049000000    -3.305000000
C     3.648000000     0.523000000    -2.677000000
C     4.390000000    -0.353000000    -1.913000000
H     4.082000000    -1.395000000    -1.929000000
C     4.105000000     1.832000000    -2.714000000
H     3.582000000     2.551000000    -3.340000000
O     1.926000000     0.906000000    -4.383000000
H     1.630000000     0.027000000    -2.562000000
C     0.240000000    -2.006000000    -4.230000000
C     0.186000000    -1.019000000    -5.364000000
H    -0.536000000    -1.250000000    -6.150000000
H     1.131000000    -1.017000000    -5.910000000
C    -0.261000000     0.307000000    -4.844000000
C     0.611000000     1.199000000    -4.382000000
C     0.243000000     2.444000000    -3.943000000
H     0.993000000     3.170000000    -3.639000000
C    -1.079000000     2.684000000    -3.732000000
O    -1.450000000     3.812000000    -3.058000000
C    -1.696000000     3.676000000    -1.654000000
H    -1.306000000     2.668000000    -1.448000000
C    -0.888000000     4.695000000    -0.848000000
C    -1.115000000     4.882000000     0.480000000
H    -2.031000000     4.458000000     0.884000000
C     0.180000000     5.382000000    -1.380000000
H     0.333000000     5.301000000    -2.453000000
C     1.000000000     6.231000000    -0.636000000
O     2.055000000     6.990000000    -1.168000000
C     0.897000000     6.210000000     0.777000000
H     1.634000000     6.733000000     1.382000000
C    -0.193000000     5.574000000     1.299000000
O    -0.373000000     5.719000000     2.668000000
C    -1.572000000     5.482000000     3.354000000
C    -1.661000000     4.303000000     4.102000000
H    -0.856000000     3.583000000     4.226000000
C    -2.657000000     6.313000000     3.193000000
H    -2.546000000     7.083000000     2.434000000
C    -3.822000000     6.029000000     3.863000000
H    -4.667000000     6.701000000     3.734000000
C    -3.947000000     4.888000000     4.624000000
H    -4.812000000     4.694000000     5.253000000
C    -2.887000000     4.034000000     4.727000000
O    -3.056000000     2.908000000     5.499000000
C    -2.737000000     1.642000000     5.012000000
C    -2.223000000     0.704000000     5.893000000
H    -1.801000000     1.093000000     6.817000000
C    -1.972000000    -0.570000000     5.469000000
O    -1.341000000    -1.434000000     6.353000000
C    -1.283000000    -2.783000000     6.146000000
C    -0.077000000    -3.162000000     5.589000000
H     0.582000000    -2.375000000     5.233000000
C    -2.267000000    -3.735000000     6.536000000
H    -3.210000000    -3.398000000     6.957000000
C    -2.078000000    -5.046000000     6.151000000
H    -2.765000000    -5.831000000     6.455000000
C    -0.880000000    -5.415000000     5.542000000
H    -0.740000000    -6.464000000     5.294000000
C     0.140000000    -4.491000000     5.288000000
O     1.429000000    -4.869000000     4.854000000
C     1.783000000    -4.786000000     3.520000000
C     3.092000000    -4.834000000     3.233000000
H     3.839000000    -4.621000000     3.994000000
C     3.524000000    -4.882000000     1.936000000
O     4.902000000    -4.862000000     1.718000000
C     5.547000000    -4.273000000     0.695000000
C     5.684000000    -2.896000000     0.727000000
H     5.499000000    -2.393000000     1.672000000
C     5.956000000    -4.931000000    -0.481000000
H     5.968000000    -6.016000000    -0.536000000
C     6.382000000    -4.230000000    -1.567000000
H     6.712000000    -4.767000000    -2.452000000
C     6.432000000    -2.844000000    -1.549000000
H     6.931000000    -2.248000000    -2.309000000
C     6.124000000    -2.204000000    -0.374000000
O     6.182000000    -0.840000000    -0.306000000
C     5.500000000     0.041000000    -1.106000000
C     5.837000000     1.370000000    -1.124000000
H     6.593000000     1.698000000    -0.416000000
C     5.113000000     2.321000000    -1.903000000
O     5.458000000     3.605000000    -1.768000000
C     4.660000000     4.613000000    -2.176000000
C     4.706000000     4.825000000    -3.554000000
H     5.541000000     4.402000000    -4.107000000
C     3.813000000     5.759000000    -4.179000000
H     3.960000000     5.885000000    -5.249000000
C     2.871000000     6.433000000    -3.335000000
H     2.111000000     7.052000000    -3.805000000
C     2.937000000     6.308000000    -1.974000000
C     3.877000000     5.463000000    -1.427000000
H     3.965000000     5.307000000    -0.355000000
C     1.243000000     2.203000000     1.393000000
H     1.909000000     2.985000000     1.037000000
C     0.616000000     1.349000000     0.402000000
H     0.683000000     1.583000000    -0.657000000
C    -0.129000000     0.231000000     0.689000000
C    -0.760000000    -0.596000000    -0.433000000
H    -1.237000000     0.087000000    -1.139000000
H     0.022000000    -1.218000000    -0.874000000
H    -1.407000000    -1.328000000     0.055000000
C    -0.110000000    -0.228000000     2.006000000
H    -0.473000000    -1.219000000     2.264000000
C     0.488000000     0.549000000     2.976000000
H     0.619000000     0.196000000     3.995000000
C     1.146000000     1.748000000     2.707000000
C     1.970000000     2.480000000     3.780000000
O     1.769000000     2.208000000     4.935000000
O     2.797000000     3.298000000     3.443000000
O     3.112000000     7.443000000     5.922000000
H     2.442000000     6.760000000     5.886000000
H     3.134000000     7.709000000     6.841000000
O     1.640000000     5.125000000     4.949000000
H     1.048000000     5.156000000     4.198000000
H     2.266000000     4.434000000     4.732000000
O     5.403000000     3.324000000     4.836000000
H     5.029000000     3.843000000     4.123000000
H     4.744000000     3.359000000     5.529000000
O     1.694000000     2.988000000     7.555000000
H     1.633000000     2.705000000     6.643000000
H     2.550000000     3.412000000     7.618000000
O     4.455000000     5.445000000     2.467000000
H     3.775000000     4.891000000     2.849000000
H     4.319000000     6.304000000     2.868000000
O     4.751000000    -1.789000000     7.839000000
H     4.419000000    -1.303000000     7.085000000
H     3.978000000    -1.948000000     8.381000000
O     1.170000000     2.804000000    10.289000000
H     1.514000000     3.153000000     9.467000000
H     1.099000000     1.861000000    10.138000000
O     3.412000000     7.729000000     3.296000000
H     2.705000000     8.274000000     2.951000000
H     3.185000000     7.598000000     4.217000000
O     4.236000000     4.133000000     7.496000000
H     4.492000000     3.404000000     8.061000000
H     4.758000000     4.872000000     7.807000000
O     5.150000000     1.594000000     2.691000000
H     4.292000000     1.906000000     2.402000000
H     5.187000000     1.820000000     3.620000000
O     3.308000000    -0.076000000     5.957000000
H     2.782000000     0.645000000     5.611000000
H     3.639000000    -0.526000000     5.180000000
O     0.914000000     0.234000000     7.979000000
H     1.035000000     1.183000000     8.008000000
H     1.189000000    -0.015000000     7.097000000
O     7.743000000     2.597000000     5.952000000
H     7.017000000     2.575000000     5.329000000
H     7.379000000     3.017000000     6.731000000
O     6.854000000     5.536000000     0.757000000
H     5.972000000     5.519000000     1.128000000
H     7.047000000     6.466000000     0.639000000
O     7.367000000     6.337000000     3.747000000
H     6.919000000     6.864000000     4.409000000
H     6.660000000     5.950000000     3.230000000
O     4.891000000    -1.193000000     3.806000000
H     4.886000000    -0.544000000     3.101000000
H     5.815000000    -1.291000000     4.035000000
O    -0.185000000     7.951000000     4.527000000
H    -0.708000000     8.270000000     5.262000000
H    -0.073000000     7.016000000     4.700000000
O    -0.339000000     4.648000000     7.592000000
H     0.367000000     4.009000000     7.693000000
H     0.081000000     5.407000000     7.187000000
O     5.926000000     7.411000000     5.645000000
H     5.640000000     8.310000000     5.809000000
H     5.154000000     6.877000000     5.832000000
