218
-1474.74163
C    -2.434000000    -0.305000000     4.483000000
H    -2.000000000    -1.249000000     4.165000000
C    -3.409000000     0.254000000     3.614000000
C    -3.714000000     1.580000000     3.858000000
H    -4.341000000     2.140000000     3.169000000
C    -3.683000000    -0.409000000     2.212000000
O    -3.840000000    -1.802000000     2.335000000
H    -2.793000000    -0.295000000     1.576000000
O    -4.849000000     0.245000000     1.586000000
C    -4.614000000     0.577000000     0.275000000
C    -4.082000000     1.785000000    -0.025000000
H    -3.780000000     2.543000000     0.694000000
C    -3.797000000     2.136000000    -1.329000000
O    -3.224000000     3.354000000    -1.652000000
C    -4.030000000     1.288000000    -2.387000000
C    -3.673000000     1.661000000    -3.851000000
H    -4.433000000     1.277000000    -4.535000000
C    -2.221000000     1.347000000    -4.199000000
C    -1.830000000     0.085000000    -4.737000000
H    -2.590000000    -0.619000000    -5.065000000
H    -3.669000000     2.750000000    -3.927000000
C    -4.612000000     0.065000000    -2.078000000
H    -4.767000000    -0.654000000    -2.879000000
C    -4.794000000    -0.349000000    -0.743000000
C    -5.231000000    -1.779000000    -0.402000000
H    -5.747000000    -2.046000000    -1.326000000
H    -6.062000000    -1.708000000     0.304000000
C    -4.065000000    -2.648000000    -0.066000000
C    -3.511000000    -3.413000000    -1.071000000
H    -4.002000000    -3.323000000    -2.036000000
C    -3.470000000    -2.652000000     1.197000000
C    -2.320000000    -3.386000000     1.400000000
H    -1.837000000    -3.431000000     2.372000000
C    -1.691000000    -4.070000000     0.393000000
O    -0.551000000    -4.729000000     0.707000000
C     0.667000000    -4.220000000     0.248000000
C     1.735000000    -4.427000000     1.348000000
C     3.039000000    -4.628000000     0.947000000
H     3.243000000    -4.770000000    -0.111000000
C     1.457000000    -4.168000000     2.676000000
H     0.417000000    -3.970000000     2.923000000
O     1.007000000    -4.889000000    -0.994000000
H     0.592000000    -3.123000000     0.215000000
C    -2.237000000    -4.073000000    -0.908000000
C    -1.612000000    -4.892000000    -2.007000000
H    -2.314000000    -5.172000000    -2.796000000
H    -1.275000000    -5.872000000    -1.663000000
C    -0.495000000    -4.123000000    -2.600000000
C    -0.688000000    -3.420000000    -3.837000000
H    -1.657000000    -3.522000000    -4.320000000
C     0.742000000    -4.150000000    -2.083000000
C     1.757000000    -3.429000000    -2.563000000
H     2.775000000    -3.394000000    -2.185000000
C     1.514000000    -2.566000000    -3.636000000
O     2.515000000    -1.768000000    -4.058000000
C     2.400000000    -0.477000000    -3.504000000
C     3.782000000    -0.003000000    -2.983000000
C     4.893000000    -0.864000000    -2.668000000
H     4.865000000    -1.903000000    -2.989000000
C     3.977000000     1.352000000    -2.597000000
H     3.201000000     2.085000000    -2.801000000
O     1.830000000     0.424000000    -4.519000000
H     1.644000000    -0.474000000    -2.705000000
C     0.265000000    -2.469000000    -4.317000000
C     0.010000000    -1.545000000    -5.502000000
H    -0.718000000    -2.073000000    -6.121000000
H     0.842000000    -1.339000000    -6.179000000
C    -0.464000000    -0.204000000    -4.863000000
C     0.539000000     0.678000000    -4.428000000
C     0.218000000     1.940000000    -3.966000000
H     1.046000000     2.599000000    -3.716000000
C    -1.150000000     2.228000000    -3.794000000
O    -1.410000000     3.349000000    -3.068000000
C    -1.783000000     3.297000000    -1.653000000
H    -1.404000000     2.319000000    -1.322000000
C    -1.233000000     4.429000000    -0.789000000
C    -2.044000000     5.115000000     0.103000000
H    -3.076000000     4.781000000     0.178000000
C     0.116000000     4.851000000    -0.952000000
H     0.689000000     4.347000000    -1.727000000
C     0.606000000     5.937000000    -0.134000000
O     1.903000000     6.374000000    -0.295000000
C    -0.230000000     6.538000000     0.822000000
H     0.177000000     7.333000000     1.442000000
C    -1.599000000     6.182000000     0.941000000
O    -2.313000000     6.764000000     1.968000000
C    -3.200000000     6.023000000     2.688000000
C    -2.823000000     4.965000000     3.447000000
H    -1.804000000     4.588000000     3.473000000
C    -4.514000000     6.511000000     2.748000000
H    -4.755000000     7.227000000     1.965000000
C    -5.462000000     5.953000000     3.579000000
H    -6.516000000     6.220000000     3.571000000
C    -5.101000000     4.920000000     4.447000000
H    -5.819000000     4.372000000     5.051000000
C    -3.790000000     4.439000000     4.356000000
O    -3.483000000     3.567000000     5.372000000
C    -3.240000000     2.253000000     5.049000000
C    -2.477000000     1.532000000     5.974000000
H    -1.984000000     1.966000000     6.840000000
C    -2.061000000     0.253000000     5.624000000
O    -0.996000000    -0.279000000     6.366000000
C    -0.527000000    -1.570000000     6.132000000
C     0.728000000    -1.893000000     5.570000000
H     1.489000000    -1.118000000     5.607000000
C    -1.431000000    -2.613000000     6.316000000
H    -2.431000000    -2.431000000     6.700000000
C    -1.162000000    -3.958000000     6.121000000
H    -1.863000000    -4.773000000     6.286000000
C     0.076000000    -4.266000000     5.590000000
H     0.306000000    -5.314000000     5.415000000
C     1.073000000    -3.278000000     5.474000000
O     2.322000000    -3.539000000     4.944000000
C     2.461000000    -4.057000000     3.657000000
C     3.810000000    -4.236000000     3.204000000
H     4.605000000    -4.107000000     3.934000000
C     4.094000000    -4.512000000     1.858000000
O     5.386000000    -4.522000000     1.602000000
C     5.848000000    -4.239000000     0.320000000
C     5.996000000    -2.929000000    -0.083000000
H     5.506000000    -2.122000000     0.455000000
C     6.258000000    -5.316000000    -0.508000000
H     6.325000000    -6.352000000    -0.184000000
C     7.018000000    -4.975000000    -1.691000000
H     7.412000000    -5.781000000    -2.304000000
C     7.193000000    -3.649000000    -2.100000000
H     7.789000000    -3.472000000    -2.992000000
C     6.742000000    -2.633000000    -1.249000000
O     7.021000000    -1.309000000    -1.489000000
C     5.981000000    -0.429000000    -1.886000000
C     6.055000000     0.888000000    -1.453000000
H     6.945000000     1.225000000    -0.928000000
C     5.087000000     1.774000000    -1.829000000
O     5.211000000     3.082000000    -1.374000000
C     4.380000000     4.115000000    -1.745000000
C     4.357000000     4.563000000    -3.093000000
H     5.045000000     4.138000000    -3.820000000
C     3.511000000     5.616000000    -3.523000000
H     3.559000000     5.882000000    -4.576000000
C     2.693000000     6.216000000    -2.564000000
H     1.930000000     6.901000000    -2.926000000
C     2.738000000     5.826000000    -1.231000000
C     3.650000000     4.822000000    -0.846000000
H     3.711000000     4.645000000     0.225000000
C     1.823000000     1.789000000     0.592000000
H     2.423000000     2.594000000     0.176000000
C     1.047000000     1.029000000    -0.308000000
H     1.107000000     1.250000000    -1.371000000
C     0.137000000     0.102000000     0.140000000
C    -0.600000000    -0.792000000    -0.847000000
H     0.138000000    -1.514000000    -1.202000000
H    -1.470000000    -1.287000000    -0.410000000
H    -0.992000000    -0.397000000    -1.786000000
C    -0.047000000    -0.021000000     1.488000000
H    -0.735000000    -0.792000000     1.824000000
C     0.681000000     0.737000000     2.470000000
H     0.542000000     0.443000000     3.507000000
C     1.610000000     1.638000000     2.009000000
C     2.467000000     2.360000000     3.010000000
O     2.207000000     2.294000000     4.177000000
O     3.356000000     3.063000000     2.568000000
O     5.778000000     1.954000000     5.745000000
H     5.201000000     2.694000000     5.559000000
H     6.478000000     2.325000000     6.284000000
O     3.715000000     5.965000000     2.836000000
H     3.585000000     5.021000000     2.752000000
H     2.829000000     6.329000000     2.841000000
O     3.743000000     6.760000000     5.470000000
H     3.095000000     6.985000000     4.802000000
H     4.501000000     7.306000000     5.260000000
O    -1.528000000     4.876000000     7.917000000
H    -1.096000000     4.461000000     7.170000000
H    -1.121000000     4.471000000     8.683000000
O     3.208000000    -1.276000000     1.049000000
H     2.755000000    -0.440000000     0.937000000
H     3.622000000    -1.211000000     1.910000000
O     0.590000000     3.702000000     6.236000000
H     1.014000000     3.129000000     5.598000000
H     1.297000000     3.974000000     6.821000000
O     4.173000000    -1.306000000     7.484000000
H     4.799000000    -1.696000000     6.875000000
H     3.863000000    -0.518000000     7.038000000
O     5.304000000     7.838000000     2.172000000
H     5.538000000     8.258000000     3.000000000
H     4.596000000     7.236000000     2.401000000
O     3.858000000     3.778000000     8.377000000
H     3.905000000     4.688000000     8.669000000
H     3.943000000     3.828000000     7.425000000
O     6.831000000     5.798000000     1.088000000
H     6.243000000     6.338000000     1.616000000
H     6.367000000     5.677000000     0.260000000
O     1.738000000     7.734000000     3.826000000
H     0.825000000     7.741000000     4.115000000
H     1.858000000     8.579000000     3.391000000
O     7.407000000    -0.237000000     1.483000000
H     6.936000000    -0.542000000     0.708000000
H     6.867000000     0.474000000     1.828000000
O     8.087000000     3.508000000     2.493000000
H     7.329000000     2.925000000     2.545000000
H     7.770000000     4.270000000     2.008000000
O     5.756000000     1.713000000     2.738000000
H     5.003000000     2.260000000     2.513000000
H     5.504000000     1.284000000     3.555000000
O     0.771000000     7.157000000     6.859000000
H     0.364000000     6.472000000     7.390000000
H     0.392000000     7.041000000     5.988000000
O     3.414000000     0.787000000     5.971000000
H     4.283000000     1.189000000     5.958000000
H     2.933000000     1.234000000     5.274000000
O     2.360000000     1.446000000     8.606000000
H     2.258000000     1.249000000     7.675000000
H     2.934000000     2.212000000     8.627000000
O     4.467000000    -1.320000000     3.384000000
H     5.406000000    -1.317000000     3.570000000
H     4.108000000    -1.985000000     3.972000000
O     4.195000000     3.977000000     5.433000000
H     3.975000000     4.894000000     5.272000000
H     3.649000000     3.488000000     4.818000000
