218
-1452.92745
C    -2.888000000    -0.818000000     4.205000000
H    -2.873000000    -1.847000000     3.856000000
C    -3.450000000     0.228000000     3.378000000
C    -3.402000000     1.525000000     3.842000000
H    -3.655000000     2.384000000     3.225000000
C    -3.873000000    -0.054000000     1.937000000
O    -4.427000000    -1.413000000     1.809000000
H    -2.899000000    -0.011000000     1.428000000
O    -4.747000000     0.933000000     1.450000000
C    -4.388000000     1.428000000     0.232000000
C    -3.575000000     2.579000000     0.142000000
H    -3.241000000     3.208000000     0.963000000
C    -3.238000000     3.138000000    -1.117000000
O    -2.357000000     4.149000000    -1.122000000
C    -3.511000000     2.392000000    -2.289000000
C    -3.010000000     2.814000000    -3.613000000
H    -3.727000000     2.478000000    -4.364000000
C    -1.653000000     2.278000000    -3.883000000
C    -1.533000000     1.050000000    -4.537000000
H    -2.466000000     0.595000000    -4.862000000
H    -2.981000000     3.905000000    -3.660000000
C    -4.158000000     1.183000000    -2.180000000
H    -4.238000000     0.615000000    -3.104000000
C    -4.601000000     0.622000000    -0.943000000
C    -5.346000000    -0.671000000    -0.905000000
H    -5.975000000    -0.806000000    -1.788000000
H    -6.035000000    -0.585000000    -0.062000000
C    -4.461000000    -1.831000000    -0.619000000
C    -3.988000000    -2.580000000    -1.745000000
H    -4.360000000    -2.453000000    -2.758000000
C    -4.073000000    -2.182000000     0.659000000
C    -3.102000000    -3.180000000     0.896000000
H    -2.782000000    -3.263000000     1.931000000
C    -2.542000000    -3.906000000    -0.188000000
O    -1.598000000    -4.849000000     0.016000000
C    -0.208000000    -4.466000000    -0.208000000
C     0.766000000    -4.853000000     0.799000000
C     2.037000000    -5.462000000     0.448000000
H     2.315000000    -5.732000000    -0.568000000
C     0.559000000    -4.451000000     2.132000000
H    -0.388000000    -3.974000000     2.374000000
O     0.156000000    -4.907000000    -1.550000000
H    -0.284000000    -3.372000000    -0.122000000
C    -2.915000000    -3.507000000    -1.521000000
C    -2.415000000    -4.299000000    -2.727000000
H    -3.230000000    -4.204000000    -3.447000000
H    -2.315000000    -5.351000000    -2.450000000
C    -1.120000000    -3.643000000    -3.157000000
C    -1.138000000    -2.659000000    -4.182000000
H    -2.098000000    -2.288000000    -4.532000000
C     0.129000000    -4.054000000    -2.646000000
C     1.282000000    -3.396000000    -2.950000000
H     2.138000000    -3.632000000    -2.323000000
C     1.225000000    -2.362000000    -3.827000000
O     2.345000000    -1.621000000    -3.899000000
C     2.318000000    -0.288000000    -3.264000000
C     3.619000000    -0.087000000    -2.506000000
C     4.178000000    -1.118000000    -1.747000000
H     3.791000000    -2.134000000    -1.746000000
C     4.284000000     1.136000000    -2.498000000
H     3.981000000     1.917000000    -3.191000000
O     2.080000000     0.735000000    -4.278000000
H     1.540000000    -0.267000000    -2.486000000
C     0.048000000    -1.992000000    -4.523000000
C    -0.060000000    -0.806000000    -5.478000000
H    -0.884000000    -0.904000000    -6.187000000
H     0.824000000    -0.787000000    -6.119000000
C    -0.247000000     0.540000000    -4.803000000
C     0.834000000     1.266000000    -4.346000000
C     0.709000000     2.538000000    -3.819000000
H     1.601000000     3.085000000    -3.523000000
C    -0.531000000     2.980000000    -3.500000000
O    -0.682000000     4.104000000    -2.702000000
C    -0.966000000     3.819000000    -1.326000000
H    -1.098000000     2.737000000    -1.176000000
C    -0.165000000     4.704000000    -0.402000000
C    -0.602000000     5.047000000     0.886000000
H    -1.630000000     4.784000000     1.126000000
C     1.096000000     5.151000000    -0.811000000
H     1.555000000     4.876000000    -1.757000000
C     1.929000000     5.785000000     0.099000000
O     3.097000000     6.296000000    -0.339000000
C     1.533000000     6.043000000     1.415000000
H     2.210000000     6.519000000     2.119000000
C     0.265000000     5.745000000     1.797000000
O    -0.164000000     6.009000000     3.095000000
C    -1.449000000     5.665000000     3.561000000
C    -1.643000000     4.530000000     4.247000000
H    -0.788000000     3.859000000     4.264000000
C    -2.383000000     6.642000000     3.578000000
H    -2.111000000     7.542000000     3.033000000
C    -3.601000000     6.470000000     4.313000000
H    -4.342000000     7.263000000     4.380000000
C    -3.806000000     5.251000000     4.901000000
H    -4.712000000     5.159000000     5.495000000
C    -2.851000000     4.259000000     4.801000000
O    -3.085000000     3.098000000     5.611000000
C    -3.107000000     1.789000000     5.197000000
C    -2.657000000     0.776000000     6.015000000
H    -2.320000000     0.982000000     7.028000000
C    -2.549000000    -0.552000000     5.531000000
O    -2.086000000    -1.511000000     6.461000000
C    -1.716000000    -2.681000000     5.943000000
C    -0.395000000    -2.918000000     5.518000000
H     0.293000000    -2.076000000     5.503000000
C    -2.694000000    -3.625000000     5.747000000
H    -3.754000000    -3.459000000     5.925000000
C    -2.378000000    -4.834000000     5.139000000
H    -3.207000000    -5.536000000     5.096000000
C    -1.089000000    -5.154000000     4.784000000
H    -0.896000000    -6.115000000     4.313000000
C    -0.078000000    -4.126000000     4.905000000
O     1.251000000    -4.404000000     4.437000000
C     1.475000000    -4.745000000     3.111000000
C     2.630000000    -5.488000000     2.840000000
H     3.366000000    -5.734000000     3.601000000
C     2.916000000    -5.805000000     1.488000000
O     4.191000000    -6.234000000     1.224000000
C     4.874000000    -5.467000000     0.306000000
C     4.924000000    -4.059000000     0.521000000
H     4.669000000    -3.736000000     1.527000000
C     5.222000000    -6.058000000    -0.905000000
H     5.145000000    -7.135000000    -1.033000000
C     5.756000000    -5.237000000    -1.938000000
H     6.032000000    -5.654000000    -2.903000000
C     5.931000000    -3.852000000    -1.687000000
H     6.407000000    -3.233000000    -2.444000000
C     5.540000000    -3.288000000    -0.457000000
O     5.631000000    -1.921000000    -0.099000000
C     5.278000000    -0.931000000    -0.975000000
C     5.728000000     0.398000000    -0.789000000
H     6.411000000     0.639000000     0.021000000
C     5.341000000     1.416000000    -1.642000000
O     5.980000000     2.655000000    -1.434000000
C     5.375000000     3.780000000    -1.907000000
C     5.677000000     4.362000000    -3.120000000
H     6.497000000     4.051000000    -3.761000000
C     5.016000000     5.549000000    -3.444000000
H     5.259000000     6.058000000    -4.373000000
C     4.145000000     6.112000000    -2.513000000
H     3.591000000     7.018000000    -2.742000000
C     3.957000000     5.634000000    -1.245000000
C     4.572000000     4.430000000    -0.937000000
H     4.403000000     3.961000000     0.029000000
C     1.781000000     1.783000000     0.879000000
H     2.619000000     2.420000000     0.608000000
C     0.957000000     1.202000000    -0.088000000
H     1.197000000     1.331000000    -1.140000000
C    -0.033000000     0.299000000     0.322000000
C    -0.900000000    -0.407000000    -0.651000000
H    -0.406000000    -0.888000000    -1.499000000
H    -1.490000000    -1.149000000    -0.109000000
H    -1.510000000     0.352000000    -1.145000000
C    -0.194000000     0.070000000     1.680000000
H    -1.006000000    -0.563000000     2.029000000
C     0.546000000     0.795000000     2.640000000
H     0.359000000     0.626000000     3.698000000
C     1.663000000     1.565000000     2.245000000
C     2.667000000     2.187000000     3.183000000
O     2.531000000     2.094000000     4.363000000
O     3.773000000     2.584000000     2.791000000
O     5.368000000     6.483000000     2.293000000
H     5.801000000     6.697000000     3.120000000
H     4.509000000     6.901000000     2.358000000
O     0.411000000     7.431000000     5.428000000
H     0.450000000     8.383000000     5.337000000
H     1.074000000     7.105000000     4.819000000
O     2.988000000     6.270000000     4.920000000
H     3.134000000     6.945000000     4.258000000
H     3.021000000     6.740000000     5.753000000
O     4.644000000     4.119000000     5.205000000
H     4.183000000     3.470000000     4.673000000
H     4.407000000     4.961000000     4.814000000
O     7.322000000     4.759000000     4.637000000
H     6.425000000     4.465000000     4.794000000
H     7.273000000     5.714000000     4.679000000
O     3.718000000    -1.060000000     1.734000000
H     4.346000000    -0.616000000     1.164000000
H     2.911000000    -0.553000000     1.644000000
O     1.811000000     4.103000000     6.220000000
H     2.054000000     4.955000000     5.858000000
H     1.890000000     3.498000000     5.482000000
O     3.686000000    -1.741000000     7.167000000
H     3.970000000    -1.829000000     6.257000000
H     2.966000000    -1.111000000     7.134000000
O     7.627000000     2.232000000     6.078000000
H     7.566000000     3.133000000     5.760000000
H     6.977000000     1.752000000     5.565000000
O     7.343000000     5.251000000     0.719000000
H     6.594000000     5.628000000     1.182000000
H     6.994000000     4.463000000     0.302000000
O     5.141000000     4.683000000     7.802000000
H     4.896000000     4.525000000     6.890000000
H     5.990000000     4.251000000     7.900000000
O     8.046000000     1.030000000     2.571000000
H     7.404000000     1.734000000     2.476000000
H     8.892000000     1.458000000     2.439000000
O     7.313000000    -1.439000000     1.817000000
H     7.716000000    -0.615000000     2.092000000
H     6.595000000    -1.174000000     1.243000000
O     6.249000000     3.034000000     2.336000000
H     5.332000000     2.819000000     2.507000000
H     6.287000000     3.989000000     2.397000000
O    -0.440000000     0.632000000     8.266000000
H    -0.118000000     0.638000000     7.365000000
H     0.337000000     0.803000000     8.799000000
O     2.656000000     0.920000000     6.688000000
H     2.432000000     1.668000000     7.241000000
H     2.601000000     1.258000000     5.794000000
O     2.925000000     3.602000000     8.906000000
H     2.391000000     3.974000000     8.204000000
H     3.797000000     3.971000000     8.765000000
O     4.533000000    -1.783000000     4.670000000
H     4.262000000    -1.736000000     3.753000000
H     4.924000000    -0.928000000     4.849000000
O     5.282000000     0.833000000     5.370000000
H     4.886000000     1.279000000     4.621000000
H     4.744000000     1.094000000     6.117000000
