218
-1468.15517
C    -4.221000000    -3.580000000     0.582000000
H    -4.667000000    -3.712000000    -0.401000000
C    -3.923000000    -2.294000000     1.133000000
C    -3.164000000    -2.320000000     2.331000000
H    -2.798000000    -1.397000000     2.774000000
C    -4.177000000    -0.945000000     0.478000000
O    -5.007000000    -1.099000000    -0.687000000
H    -3.191000000    -0.557000000     0.180000000
O    -4.807000000     0.010000000     1.336000000
C    -4.269000000     1.299000000     1.428000000
C    -3.330000000     1.593000000     2.422000000
H    -3.043000000     0.887000000     3.197000000
C    -2.543000000     2.746000000     2.376000000
O    -1.743000000     2.953000000     3.407000000
C    -2.625000000     3.702000000     1.328000000
C    -1.864000000     5.017000000     1.319000000
H    -2.486000000     5.764000000     0.822000000
C    -0.508000000     4.911000000     0.645000000
C    -0.364000000     5.072000000    -0.799000000
H    -1.236000000     5.308000000    -1.404000000
H    -1.751000000     5.544000000     2.268000000
C    -3.488000000     3.357000000     0.276000000
H    -3.604000000     4.010000000    -0.585000000
C    -4.369000000     2.210000000     0.318000000
C    -5.275000000     1.888000000    -0.856000000
H    -5.511000000     2.810000000    -1.391000000
H    -6.232000000     1.431000000    -0.597000000
C    -4.616000000     0.972000000    -1.920000000
C    -3.996000000     1.509000000    -3.046000000
H    -4.056000000     2.587000000    -3.173000000
C    -4.532000000    -0.416000000    -1.815000000
C    -3.797000000    -1.222000000    -2.704000000
H    -3.720000000    -2.304000000    -2.629000000
C    -3.112000000    -0.641000000    -3.734000000
O    -2.183000000    -1.404000000    -4.441000000
C    -0.832000000    -1.342000000    -4.013000000
C    -0.237000000    -2.772000000    -4.090000000
C     1.112000000    -2.902000000    -4.380000000
H     1.732000000    -2.013000000    -4.469000000
C    -0.982000000    -3.824000000    -3.741000000
H    -2.054000000    -3.738000000    -3.579000000
O    -0.149000000    -0.460000000    -4.908000000
H    -0.723000000    -1.028000000    -2.964000000
C    -3.213000000     0.758000000    -3.873000000
C    -2.390000000     1.406000000    -4.968000000
H    -2.946000000     2.245000000    -5.390000000
H    -2.278000000     0.685000000    -5.781000000
C    -0.986000000     1.706000000    -4.430000000
C    -0.706000000     3.042000000    -3.924000000
H    -1.529000000     3.753000000    -3.931000000
C     0.071000000     0.854000000    -4.547000000
C     1.324000000     1.145000000    -4.027000000
H     2.042000000     0.337000000    -3.912000000
C     1.512000000     2.401000000    -3.457000000
O     2.770000000     2.638000000    -2.927000000
C     2.944000000     2.702000000    -1.529000000
C     4.037000000     1.770000000    -0.913000000
C     4.178000000     0.468000000    -1.311000000
H     3.579000000    -0.021000000    -2.074000000
C     4.848000000     2.296000000     0.054000000
H     4.617000000     3.312000000     0.366000000
O     3.126000000     4.087000000    -1.143000000
H     2.037000000     2.276000000    -1.073000000
C     0.558000000     3.466000000    -3.445000000
C     0.954000000     4.834000000    -2.848000000
H     0.291000000     5.625000000    -3.204000000
H     1.934000000     5.094000000    -3.253000000
C     0.893000000     4.882000000    -1.345000000
C     1.991000000     4.549000000    -0.528000000
C     1.868000000     4.375000000     0.835000000
H     2.749000000     4.040000000     1.375000000
C     0.577000000     4.417000000     1.425000000
O     0.404000000     4.064000000     2.739000000
C    -0.213000000     2.785000000     3.209000000
H    -0.161000000     2.062000000     2.382000000
C     0.540000000     2.199000000     4.380000000
C    -0.070000000     1.183000000     5.138000000
H    -1.089000000     0.908000000     4.879000000
C     1.886000000     2.409000000     4.529000000
H     2.344000000     3.086000000     3.813000000
C     2.631000000     1.814000000     5.569000000
O     3.975000000     2.124000000     5.727000000
C     1.995000000     1.012000000     6.502000000
H     2.648000000     0.531000000     7.226000000
C     0.642000000     0.639000000     6.210000000
O     0.055000000    -0.296000000     7.067000000
C    -0.995000000    -1.005000000     6.613000000
C    -0.867000000    -1.867000000     5.493000000
H     0.103000000    -1.990000000     5.018000000
C    -2.153000000    -1.091000000     7.333000000
H    -2.146000000    -0.553000000     8.277000000
C    -3.256000000    -1.812000000     6.899000000
H    -4.095000000    -1.980000000     7.569000000
C    -3.194000000    -2.514000000     5.765000000
H    -4.061000000    -3.019000000     5.347000000
C    -1.990000000    -2.559000000     5.031000000
O    -1.933000000    -3.447000000     3.962000000
C    -2.819000000    -3.501000000     2.948000000
C    -3.137000000    -4.738000000     2.425000000
H    -2.813000000    -5.633000000     2.949000000
C    -3.773000000    -4.753000000     1.187000000
O    -3.905000000    -5.945000000     0.604000000
C    -3.724000000    -6.118000000    -0.725000000
C    -2.491000000    -6.003000000    -1.348000000
H    -1.614000000    -5.802000000    -0.739000000
C    -4.782000000    -6.590000000    -1.445000000
H    -5.687000000    -6.722000000    -0.859000000
C    -4.640000000    -6.768000000    -2.839000000
H    -5.532000000    -6.836000000    -3.457000000
C    -3.410000000    -6.540000000    -3.473000000
H    -3.340000000    -6.573000000    -4.558000000
C    -2.303000000    -6.288000000    -2.676000000
O    -1.071000000    -6.211000000    -3.327000000
C    -0.335000000    -5.044000000    -3.662000000
C     1.006000000    -5.195000000    -3.917000000
H     1.356000000    -6.224000000    -3.919000000
C     1.796000000    -4.096000000    -4.239000000
O     3.197000000    -4.251000000    -4.485000000
C     4.180000000    -3.420000000    -3.973000000
C     4.182000000    -2.936000000    -2.653000000
H     3.393000000    -3.191000000    -1.950000000
C     5.265000000    -3.040000000    -4.820000000
H     5.225000000    -3.414000000    -5.840000000
C     6.252000000    -2.197000000    -4.458000000
H     6.961000000    -1.900000000    -5.226000000
C     6.233000000    -1.724000000    -3.160000000
H     7.083000000    -1.190000000    -2.741000000
C     5.266000000    -2.144000000    -2.274000000
O     5.289000000    -1.633000000    -1.046000000
C     5.147000000    -0.368000000    -0.649000000
C     6.034000000     0.146000000     0.294000000
H     6.839000000    -0.467000000     0.690000000
C     5.818000000     1.500000000     0.738000000
O     6.574000000     1.866000000     1.784000000
C     6.051000000     2.615000000     2.791000000
C     6.238000000     3.982000000     2.811000000
H     6.901000000     4.450000000     2.089000000
C     5.595000000     4.761000000     3.749000000
H     5.703000000     5.843000000     3.772000000
C     4.810000000     4.220000000     4.715000000
H     4.339000000     4.922000000     5.398000000
C     4.682000000     2.810000000     4.764000000
C     5.273000000     2.024000000     3.760000000
H     5.134000000     0.946000000     3.762000000
C     0.176000000    -2.257000000     0.930000000
H    -0.168000000    -3.279000000     0.793000000
C    -0.497000000    -1.196000000     0.293000000
H    -1.376000000    -1.379000000    -0.320000000
C     0.099000000     0.012000000     0.347000000
C    -0.443000000     1.201000000    -0.412000000
H    -0.045000000     2.131000000     0.000000000
H    -0.021000000     1.051000000    -1.408000000
H    -1.534000000     1.159000000    -0.447000000
C     1.218000000     0.243000000     1.162000000
H     1.561000000     1.271000000     1.245000000
C     1.806000000    -0.800000000     1.888000000
H     2.758000000    -0.687000000     2.400000000
C     1.262000000    -2.070000000     1.789000000
C     1.946000000    -3.213000000     2.469000000
O     3.065000000    -3.055000000     3.008000000
O     1.462000000    -4.315000000     2.457000000
O     2.700000000    -2.334000000     7.127000000
H     1.939000000    -2.521000000     7.677000000
H     2.970000000    -3.190000000     6.793000000
O     1.863000000    -8.330000000    -0.560000000
H     1.884000000    -7.432000000    -0.891000000
H     2.617000000    -8.386000000     0.027000000
O     7.234000000    -0.981000000     2.950000000
H     7.047000000    -1.657000000     3.601000000
H     7.825000000    -0.375000000     3.397000000
O    -1.232000000    -6.700000000     5.618000000
H    -0.832000000    -5.831000000     5.650000000
H    -2.170000000    -6.536000000     5.718000000
O     2.434000000    -5.037000000     7.695000000
H     3.226000000    -5.264000000     8.182000000
H     2.005000000    -4.370000000     8.232000000
O     4.323000000    -4.331000000     5.160000000
H     5.088000000    -3.840000000     5.458000000
H     4.069000000    -3.906000000     4.341000000
O     1.601000000    -8.037000000     5.029000000
H     0.898000000    -7.561000000     4.585000000
H     2.384000000    -7.511000000     4.870000000
O     0.877000000    -4.742000000     5.473000000
H     1.675000000    -4.842000000     5.992000000
H     1.189000000    -4.589000000     4.581000000
O    -0.207000000    -6.166000000     3.107000000
H     0.271000000    -5.365000000     2.893000000
H    -0.607000000    -5.986000000     3.958000000
O     0.061000000    -8.518000000     1.848000000
H     0.051000000    -7.615000000     2.163000000
H     0.156000000    -8.439000000     0.898000000
O     5.335000000    -3.155000000     1.702000000
H     4.504000000    -3.212000000     2.172000000
H     5.523000000    -2.217000000     1.659000000
O     3.834000000    -1.076000000     4.803000000
H     3.252000000    -1.498000000     5.435000000
H     3.580000000    -1.448000000     3.958000000
O     2.973000000    -6.185000000     3.386000000
H     3.799000000    -5.879000000     3.760000000
H     2.625000000    -5.425000000     2.920000000
O     2.405000000    -5.501000000    -0.241000000
H     1.955000000    -5.165000000     0.535000000
H     3.335000000    -5.455000000    -0.017000000
O     6.491000000     0.091000000     5.809000000
H     5.700000000    -0.389000000     5.565000000
H     6.660000000     0.669000000     5.065000000
O     5.839000000    -6.214000000     6.680000000
H     5.215000000    -5.743000000     6.128000000
H     6.578000000    -6.401000000     6.102000000
O     3.619000000    -8.745000000     1.617000000
H     3.150000000    -8.328000000     2.340000000
H     4.521000000    -8.438000000     1.707000000
O     7.687000000    -4.281000000     1.877000000
H     6.811000000    -3.922000000     2.017000000
H     7.926000000    -3.995000000     0.996000000
O     5.017000000    -5.580000000     0.416000000
H     5.768000000    -6.038000000     0.794000000
H     5.273000000    -4.658000000     0.418000000
