218
-1480.67683
C    -4.282000000     2.461000000    -0.569000000
H    -4.253000000     1.878000000    -1.486000000
C    -3.184000000     3.247000000    -0.173000000
C    -3.331000000     3.949000000     0.983000000
H    -2.607000000     4.692000000     1.309000000
C    -1.960000000     3.438000000    -0.994000000
O    -2.299000000     3.317000000    -2.376000000
H    -1.363000000     2.524000000    -0.864000000
O    -1.240000000     4.654000000    -0.758000000
C     0.115000000     4.521000000    -0.609000000
C     0.606000000     4.390000000     0.640000000
H    -0.080000000     4.486000000     1.478000000
C     1.972000000     4.070000000     0.855000000
O     2.533000000     3.805000000     2.112000000
C     2.819000000     3.874000000    -0.218000000
C     4.289000000     3.513000000     0.002000000
H     4.910000000     3.942000000    -0.788000000
C     4.337000000     1.961000000     0.031000000
C     4.668000000     1.216000000    -1.108000000
H     4.842000000     1.696000000    -2.067000000
H     4.652000000     3.867000000     0.969000000
C     2.317000000     4.104000000    -1.500000000
H     2.980000000     3.955000000    -2.348000000
C     0.958000000     4.376000000    -1.720000000
C     0.399000000     4.536000000    -3.129000000
H     1.143000000     4.962000000    -3.806000000
H    -0.452000000     5.218000000    -3.079000000
C    -0.107000000     3.250000000    -3.689000000
C     0.751000000     2.406000000    -4.423000000
H     1.643000000     2.930000000    -4.756000000
C    -1.360000000     2.721000000    -3.262000000
C    -1.793000000     1.462000000    -3.680000000
H    -2.753000000     1.065000000    -3.362000000
C    -0.934000000     0.694000000    -4.440000000
O    -1.345000000    -0.495000000    -4.947000000
C    -1.020000000    -1.639000000    -4.095000000
C    -2.243000000    -2.549000000    -3.799000000
C    -2.092000000    -3.888000000    -3.516000000
H    -1.154000000    -4.420000000    -3.657000000
C    -3.547000000    -1.966000000    -3.559000000
H    -3.573000000    -0.892000000    -3.724000000
O     0.114000000    -2.382000000    -4.635000000
H    -0.632000000    -1.276000000    -3.132000000
C     0.378000000     1.118000000    -4.783000000
C     1.347000000     0.153000000    -5.470000000
H     2.184000000     0.667000000    -5.947000000
H     0.815000000    -0.437000000    -6.220000000
C     2.044000000    -0.897000000    -4.560000000
C     3.273000000    -0.525000000    -4.024000000
H     3.498000000     0.533000000    -4.129000000
C     1.359000000    -2.082000000    -4.182000000
C     1.895000000    -2.823000000    -3.180000000
H     1.334000000    -3.703000000    -2.874000000
C     3.120000000    -2.494000000    -2.558000000
O     3.519000000    -3.298000000    -1.487000000
C     3.322000000    -2.767000000    -0.192000000
C     2.755000000    -3.807000000     0.751000000
C     1.577000000    -4.455000000     0.420000000
H     1.112000000    -4.274000000    -0.545000000
C     3.244000000    -3.898000000     2.052000000
H     4.122000000    -3.340000000     2.366000000
O     4.490000000    -2.157000000     0.408000000
H     2.606000000    -1.935000000    -0.263000000
C     3.867000000    -1.327000000    -3.027000000
C     5.130000000    -0.979000000    -2.406000000
H     5.743000000    -0.475000000    -3.157000000
H     5.661000000    -1.899000000    -2.153000000
C     4.844000000    -0.170000000    -1.117000000
C     4.653000000    -0.803000000     0.183000000
C     4.318000000    -0.044000000     1.291000000
H     4.099000000    -0.502000000     2.252000000
C     4.166000000     1.324000000     1.276000000
O     3.896000000     1.872000000     2.440000000
C     2.505000000     2.379000000     2.448000000
H     1.888000000     1.884000000     1.683000000
C     1.908000000     2.093000000     3.842000000
C     0.856000000     2.895000000     4.310000000
H     0.534000000     3.752000000     3.724000000
C     2.283000000     0.876000000     4.498000000
H     3.139000000     0.341000000     4.094000000
C     1.632000000     0.579000000     5.709000000
O     2.028000000    -0.449000000     6.506000000
C     0.581000000     1.366000000     6.183000000
H     0.090000000     1.162000000     7.131000000
C     0.191000000     2.524000000     5.498000000
O    -0.816000000     3.290000000     6.032000000
C    -1.520000000     4.242000000     5.335000000
C    -2.459000000     3.922000000     4.350000000
H    -2.680000000     2.891000000     4.082000000
C    -1.350000000     5.580000000     5.601000000
H    -0.567000000     5.818000000     6.316000000
C    -2.090000000     6.632000000     5.046000000
H    -2.083000000     7.689000000     5.301000000
C    -3.073000000     6.226000000     4.185000000
H    -3.806000000     6.973000000     3.892000000
C    -3.302000000     4.904000000     3.807000000
O    -4.372000000     4.602000000     2.931000000
C    -4.404000000     3.788000000     1.803000000
C    -5.538000000     3.105000000     1.425000000
H    -6.415000000     3.081000000     2.066000000
C    -5.386000000     2.385000000     0.238000000
O    -6.462000000     1.612000000    -0.188000000
C    -6.600000000     1.075000000    -1.492000000
C    -6.085000000    -0.258000000    -1.686000000
H    -5.802000000    -0.886000000    -0.844000000
C    -7.075000000     1.808000000    -2.631000000
H    -7.387000000     2.847000000    -2.564000000
C    -6.993000000     1.198000000    -3.912000000
H    -7.332000000     1.748000000    -4.787000000
C    -6.519000000    -0.109000000    -4.074000000
H    -6.424000000    -0.651000000    -5.011000000
C    -6.222000000    -0.848000000    -2.919000000
O    -5.939000000    -2.133000000    -3.158000000
C    -4.659000000    -2.684000000    -3.127000000
C    -4.527000000    -4.011000000    -2.883000000
H    -5.447000000    -4.499000000    -2.571000000
C    -3.241000000    -4.570000000    -3.040000000
O    -3.086000000    -5.886000000    -2.714000000
C    -1.996000000    -6.363000000    -2.088000000
C    -1.685000000    -5.840000000    -0.865000000
H    -2.129000000    -4.933000000    -0.462000000
C    -1.289000000    -7.517000000    -2.523000000
H    -1.679000000    -7.944000000    -3.443000000
C    -0.168000000    -7.978000000    -1.810000000
H     0.270000000    -8.875000000    -2.240000000
C     0.231000000    -7.339000000    -0.647000000
H     1.101000000    -7.688000000    -0.097000000
C    -0.553000000    -6.303000000    -0.161000000
O    -0.360000000    -5.795000000     1.025000000
C     0.919000000    -5.232000000     1.320000000
C     1.403000000    -5.358000000     2.602000000
H     0.845000000    -5.963000000     3.313000000
C     2.492000000    -4.657000000     3.000000000
O     2.829000000    -4.726000000     4.334000000
C     3.144000000    -3.638000000     5.097000000
C     4.486000000    -3.716000000     5.589000000
H     5.109000000    -4.561000000     5.307000000
C     5.026000000    -2.614000000     6.336000000
H     6.047000000    -2.720000000     6.693000000
C     4.151000000    -1.506000000     6.540000000
H     4.539000000    -0.662000000     7.104000000
C     2.842000000    -1.476000000     6.085000000
C     2.338000000    -2.550000000     5.321000000
H     1.325000000    -2.510000000     4.930000000
C    -3.005000000    -0.009000000     1.659000000
H    -3.516000000     0.645000000     2.361000000
C    -1.894000000     0.555000000     0.965000000
H    -1.639000000     1.604000000     1.095000000
C    -1.134000000    -0.250000000     0.111000000
C     0.153000000     0.297000000    -0.463000000
H    -0.085000000     0.731000000    -1.436000000
H     0.667000000     1.104000000     0.064000000
H     0.825000000    -0.552000000    -0.608000000
C    -1.412000000    -1.647000000     0.055000000
H    -0.760000000    -2.326000000    -0.490000000
C    -2.478000000    -2.197000000     0.787000000
H    -2.674000000    -3.264000000     0.719000000
C    -3.293000000    -1.385000000     1.600000000
C    -4.422000000    -1.953000000     2.418000000
O    -4.486000000    -3.155000000     2.603000000
O    -5.017000000    -1.222000000     3.187000000
O    -5.415000000    -5.118000000     5.820000000
H    -5.902000000    -5.466000000     5.073000000
H    -5.930000000    -4.367000000     6.113000000
O    -0.637000000    -4.549000000     5.251000000
H    -1.512000000    -4.694000000     4.891000000
H    -0.711000000    -3.725000000     5.734000000
O    -7.389000000    -0.709000000     2.158000000
H    -7.280000000     0.007000000     1.532000000
H    -6.496000000    -0.963000000     2.390000000
O    -7.691000000     0.787000000     5.353000000
H    -8.428000000     0.610000000     4.768000000
H    -8.094000000     0.926000000     6.211000000
O    -1.795000000    -1.862000000     4.397000000
H    -2.404000000    -2.541000000     4.106000000
H    -1.404000000    -1.529000000     3.589000000
O    -8.557000000    -2.998000000     3.561000000
H    -8.414000000    -2.076000000     3.347000000
H    -8.215000000    -3.476000000     2.806000000
O    -4.130000000    -5.730000000     1.281000000
H    -4.159000000    -4.869000000     1.697000000
H    -3.331000000    -6.133000000     1.620000000
O    -9.699000000     0.453000000     3.253000000
H   -10.222000000     0.984000000     2.652000000
H    -9.038000000     0.041000000     2.696000000
O    -7.194000000    -6.961000000     0.466000000
H    -7.010000000    -6.041000000     0.276000000
H    -7.873000000    -7.204000000    -0.164000000
O    -8.633000000    -2.879000000     6.245000000
H    -9.472000000    -2.442000000     6.098000000
H    -8.405000000    -3.253000000     5.394000000
O    -3.053000000    -7.488000000     3.953000000
H    -2.623000000    -7.631000000     4.796000000
H    -3.492000000    -6.643000000     4.048000000
O    -5.181000000     1.374000000     4.027000000
H    -6.100000000     1.179000000     4.211000000
H    -4.839000000     0.569000000     3.638000000
O    -6.300000000    -5.896000000     3.463000000
H    -5.534000000    -6.219000000     2.988000000
H    -6.763000000    -5.350000000     2.827000000
O    -3.773000000    -2.487000000     7.666000000
H    -3.560000000    -1.620000000     8.010000000
H    -4.241000000    -2.313000000     6.850000000
O    -7.771000000    -3.035000000    -0.768000000
H    -7.653000000    -2.968000000    -1.716000000
H    -8.697000000    -2.837000000    -0.627000000
O    -3.219000000     0.641000000     5.747000000
H    -2.868000000    -0.237000000     5.603000000
H    -3.903000000     0.737000000     5.084000000
O    -3.133000000    -4.625000000     4.366000000
H    -3.657000000    -4.202000000     3.686000000
H    -3.755000000    -4.806000000     5.071000000
O    -6.818000000    -4.173000000     1.587000000
H    -6.158000000    -3.604000000     1.983000000
H    -7.058000000    -3.730000000     0.773000000
O    -5.668000000    -2.076000000     5.682000000
H    -5.535000000    -1.869000000     4.757000000
H    -6.242000000    -1.381000000     6.003000000
