218
-1464.76115
C    -4.505000000     2.930000000    -0.049000000
H    -4.395000000     2.805000000    -1.123000000
C    -3.403000000     3.402000000     0.630000000
C    -3.428000000     3.625000000     1.980000000
H    -2.534000000     3.913000000     2.527000000
C    -2.134000000     3.713000000    -0.156000000
O    -2.416000000     3.984000000    -1.481000000
H    -1.488000000     2.825000000    -0.098000000
O    -1.382000000     4.779000000     0.342000000
C    -0.059000000     4.490000000     0.424000000
C     0.472000000     4.116000000     1.663000000
H    -0.245000000     3.958000000     2.465000000
C     1.829000000     3.916000000     1.781000000
O     2.118000000     3.283000000     3.029000000
C     2.681000000     4.060000000     0.651000000
C     4.139000000     3.773000000     0.764000000
H     4.608000000     4.308000000    -0.064000000
C     4.448000000     2.301000000     0.568000000
C     4.681000000     1.864000000    -0.719000000
H     4.765000000     2.567000000    -1.544000000
H     4.571000000     3.991000000     1.743000000
C     2.189000000     4.447000000    -0.557000000
H     2.837000000     4.600000000    -1.416000000
C     0.794000000     4.719000000    -0.640000000
C     0.323000000     5.226000000    -2.011000000
H     1.100000000     5.805000000    -2.514000000
H    -0.513000000     5.928000000    -1.977000000
C    -0.275000000     4.046000000    -2.828000000
C     0.496000000     3.394000000    -3.753000000
H     1.524000000     3.717000000    -3.892000000
C    -1.572000000     3.494000000    -2.509000000
C    -2.041000000     2.426000000    -3.211000000
H    -3.025000000     2.055000000    -2.939000000
C    -1.192000000     1.726000000    -4.046000000
O    -1.554000000     0.473000000    -4.488000000
C    -1.009000000    -0.691000000    -3.737000000
C    -2.130000000    -1.665000000    -3.415000000
C    -1.869000000    -2.973000000    -3.670000000
H    -0.925000000    -3.315000000    -4.085000000
C    -3.318000000    -1.218000000    -2.923000000
H    -3.392000000    -0.164000000    -2.671000000
O    -0.046000000    -1.183000000    -4.707000000
H    -0.457000000    -0.495000000    -2.806000000
C     0.106000000     2.214000000    -4.373000000
C     1.046000000     1.505000000    -5.381000000
H     1.794000000     2.166000000    -5.822000000
H     0.454000000     1.089000000    -6.199000000
C     1.766000000     0.409000000    -4.674000000
C     3.094000000     0.657000000    -4.093000000
H     3.561000000     1.623000000    -4.269000000
C     1.247000000    -0.884000000    -4.402000000
C     1.944000000    -1.862000000    -3.676000000
H     1.445000000    -2.784000000    -3.390000000
C     3.152000000    -1.575000000    -3.130000000
O     3.689000000    -2.517000000    -2.314000000
C     3.387000000    -2.281000000    -0.949000000
C     2.797000000    -3.552000000    -0.318000000
C     2.464000000    -4.631000000    -1.086000000
H     2.807000000    -4.736000000    -2.112000000
C     2.504000000    -3.607000000     1.033000000
H     2.740000000    -2.752000000     1.661000000
O     4.551000000    -1.842000000    -0.248000000
H     2.579000000    -1.534000000    -0.935000000
C     3.751000000    -0.293000000    -3.278000000
C     4.996000000     0.042000000    -2.442000000
H     5.373000000     0.852000000    -3.070000000
H     5.731000000    -0.757000000    -2.557000000
C     4.853000000     0.472000000    -1.000000000
C     4.655000000    -0.455000000     0.012000000
C     4.385000000     0.023000000     1.349000000
H     4.162000000    -0.649000000     2.173000000
C     4.343000000     1.365000000     1.599000000
O     3.841000000     1.706000000     2.814000000
C     2.491000000     1.858000000     3.025000000
H     1.929000000     1.515000000     2.144000000
C     1.891000000     1.083000000     4.192000000
C     0.618000000     1.422000000     4.671000000
H     0.055000000     2.186000000     4.142000000
C     2.569000000     0.006000000     4.896000000
H     3.611000000    -0.138000000     4.623000000
C     1.984000000    -0.691000000     5.960000000
O     2.666000000    -1.705000000     6.518000000
C     0.646000000    -0.395000000     6.308000000
H     0.183000000    -0.978000000     7.100000000
C    -0.009000000     0.594000000     5.611000000
O    -1.227000000     0.955000000     6.005000000
C    -1.914000000     2.178000000     5.909000000
C    -2.940000000     2.292000000     4.980000000
H    -3.138000000     1.415000000     4.368000000
C    -1.532000000     3.333000000     6.609000000
H    -0.681000000     3.248000000     7.279000000
C    -2.344000000     4.476000000     6.665000000
H    -2.037000000     5.298000000     7.307000000
C    -3.326000000     4.548000000     5.689000000
H    -3.913000000     5.462000000     5.710000000
C    -3.659000000     3.495000000     4.874000000
O    -4.732000000     3.596000000     3.971000000
C    -4.691000000     3.323000000     2.621000000
C    -5.807000000     2.889000000     1.941000000
H    -6.651000000     2.482000000     2.492000000
C    -5.738000000     2.710000000     0.586000000
O    -6.862000000     2.312000000    -0.091000000
C    -6.799000000     1.631000000    -1.236000000
C    -6.278000000     0.390000000    -1.043000000
H    -6.115000000    -0.051000000    -0.063000000
C    -6.965000000     2.186000000    -2.476000000
H    -7.344000000     3.204000000    -2.519000000
C    -6.684000000     1.398000000    -3.617000000
H    -6.594000000     1.965000000    -4.540000000
C    -6.099000000     0.127000000    -3.415000000
H    -5.879000000    -0.441000000    -4.315000000
C    -5.913000000    -0.401000000    -2.134000000
O    -5.426000000    -1.718000000    -1.947000000
C    -4.304000000    -2.135000000    -2.570000000
C    -4.116000000    -3.499000000    -2.776000000
H    -4.820000000    -4.167000000    -2.286000000
C    -2.915000000    -3.909000000    -3.305000000
O    -2.778000000    -5.260000000    -3.319000000
C    -1.594000000    -5.878000000    -3.486000000
C    -0.697000000    -5.931000000    -2.432000000
H    -0.971000000    -5.575000000    -1.442000000
C    -1.337000000    -6.719000000    -4.626000000
H    -2.076000000    -6.892000000    -5.404000000
C    -0.086000000    -7.418000000    -4.676000000
H     0.137000000    -8.033000000    -5.544000000
C     0.837000000    -7.368000000    -3.647000000
H     1.677000000    -8.051000000    -3.741000000
C     0.554000000    -6.608000000    -2.504000000
O     1.472000000    -6.716000000    -1.440000000
C     1.746000000    -5.710000000    -0.542000000
C     1.494000000    -5.753000000     0.858000000
H     1.070000000    -6.676000000     1.244000000
C     1.902000000    -4.706000000     1.663000000
O     1.795000000    -4.691000000     3.033000000
C     2.725000000    -4.128000000     3.846000000
C     4.016000000    -4.696000000     4.014000000
H     4.407000000    -5.454000000     3.340000000
C     4.845000000    -4.235000000     4.996000000
H     5.873000000    -4.584000000     5.053000000
C     4.428000000    -3.219000000     5.855000000
H     5.110000000    -2.885000000     6.633000000
C     3.167000000    -2.673000000     5.687000000
C     2.277000000    -3.154000000     4.701000000
H     1.305000000    -2.703000000     4.513000000
C    -2.417000000    -0.139000000     1.502000000
H    -3.155000000     0.390000000     2.100000000
C    -1.194000000     0.494000000     1.203000000
H    -1.015000000     1.524000000     1.501000000
C    -0.309000000    -0.149000000     0.252000000
C     0.848000000     0.581000000    -0.337000000
H     1.747000000     0.090000000     0.040000000
H     0.907000000     0.450000000    -1.420000000
H     0.968000000     1.651000000    -0.157000000
C    -0.636000000    -1.391000000    -0.191000000
H    -0.134000000    -1.892000000    -1.014000000
C    -1.821000000    -2.037000000     0.251000000
H    -2.002000000    -3.035000000    -0.139000000
C    -2.701000000    -1.420000000     1.118000000
C    -3.893000000    -2.233000000     1.571000000
O    -3.920000000    -3.405000000     1.377000000
O    -4.666000000    -1.669000000     2.365000000
O    -1.708000000    -7.866000000     1.594000000
H    -2.191000000    -7.946000000     2.417000000
H    -1.836000000    -6.955000000     1.329000000
O    -3.608000000    -7.440000000     3.890000000
H    -4.246000000    -7.420000000     3.176000000
H    -3.631000000    -6.556000000     4.256000000
O    -8.481000000    -0.414000000     1.288000000
H    -8.181000000    -0.059000000     2.125000000
H    -9.411000000    -0.191000000     1.254000000
O    -5.914000000    -3.181000000     7.139000000
H    -5.609000000    -3.930000000     6.627000000
H    -6.859000000    -3.155000000     6.986000000
O    -7.348000000    -4.715000000     5.047000000
H    -8.017000000    -4.852000000     4.376000000
H    -6.569000000    -4.452000000     4.557000000
O    -1.010000000    -3.457000000     3.358000000
H    -1.220000000    -2.555000000     3.599000000
H    -0.195000000    -3.388000000     2.860000000
O    -8.461000000    -5.348000000     1.748000000
H    -8.112000000    -6.084000000     1.246000000
H    -7.849000000    -4.631000000     1.580000000
O    -4.335000000    -4.378000000     3.789000000
H    -4.539000000    -3.897000000     2.987000000
H    -3.532000000    -3.971000000     4.114000000
O    -4.259000000    -1.074000000     6.898000000
H    -4.885000000    -0.562000000     7.409000000
H    -4.620000000    -1.961000000     6.896000000
O    -2.636000000    -1.570000000     4.619000000
H    -3.278000000    -1.633000000     3.911000000
H    -3.148000000    -1.301000000     5.382000000
O    -2.145000000    -5.281000000     1.130000000
H    -2.831000000    -4.622000000     1.024000000
H    -1.514000000    -4.877000000     1.726000000
O    -3.952000000    -6.899000000    -0.197000000
H    -4.222000000    -7.534000000     0.467000000
H    -3.595000000    -6.166000000     0.303000000
O    -2.476000000    -5.500000000     5.429000000
H    -2.294000000    -4.651000000     5.833000000
H    -3.395000000    -5.671000000     5.635000000
O    -9.197000000    -1.296000000    -1.151000000
H    -9.255000000    -2.251000000    -1.188000000
H    -8.830000000    -1.111000000    -0.287000000
O    -1.119000000    -3.288000000     6.620000000
H    -1.422000000    -2.977000000     7.473000000
H    -1.522000000    -2.691000000     5.990000000
O    -8.073000000     0.220000000     4.009000000
H    -8.763000000     0.875000000     4.116000000
H    -8.301000000    -0.471000000     4.631000000
O    -5.346000000     0.257000000     4.132000000
H    -5.020000000    -0.323000000     3.444000000
H    -6.257000000     0.426000000     3.892000000
O    -6.409000000    -3.915000000     0.015000000
H    -5.594000000    -4.184000000     0.438000000
H    -6.375000000    -2.958000000     0.019000000
O    -7.121000000    -2.639000000     2.882000000
H    -6.251000000    -2.241000000     2.901000000
H    -7.682000000    -1.971000000     2.489000000
