218
-1479.55893
C    -4.433000000     2.272000000     1.603000000
H    -4.747000000     2.318000000     0.563000000
C    -3.228000000     2.866000000     2.005000000
C    -2.819000000     2.828000000     3.335000000
H    -1.900000000     3.299000000     3.674000000
C    -2.351000000     3.484000000     0.923000000
O    -3.131000000     3.948000000    -0.231000000
H    -1.621000000     2.748000000     0.555000000
O    -1.539000000     4.627000000     1.459000000
C    -0.283000000     4.584000000     0.983000000
C     0.649000000     3.916000000     1.834000000
H     0.359000000     3.686000000     2.856000000
C     1.993000000     3.871000000     1.435000000
O     2.911000000     3.277000000     2.295000000
C     2.331000000     4.243000000     0.185000000
C     3.731000000     4.095000000    -0.385000000
H     3.903000000     4.824000000    -1.180000000
C     4.046000000     2.647000000    -0.891000000
C     3.827000000     2.290000000    -2.181000000
H     3.287000000     3.028000000    -2.768000000
H     4.405000000     4.356000000     0.434000000
C     1.348000000     4.625000000    -0.722000000
H     1.577000000     4.851000000    -1.760000000
C     0.031000000     4.867000000    -0.338000000
C    -0.971000000     5.318000000    -1.412000000
H    -0.424000000     5.915000000    -2.145000000
H    -1.722000000     5.972000000    -0.965000000
C    -1.616000000     4.156000000    -2.148000000
C    -1.193000000     3.757000000    -3.430000000
H    -0.395000000     4.277000000    -3.954000000
C    -2.701000000     3.598000000    -1.517000000
C    -3.280000000     2.464000000    -2.150000000
H    -4.131000000     1.998000000    -1.659000000
C    -2.763000000     1.964000000    -3.311000000
O    -3.276000000     0.753000000    -3.721000000
C    -2.638000000    -0.502000000    -3.411000000
C    -3.618000000    -1.633000000    -2.975000000
C    -3.169000000    -2.986000000    -3.007000000
H    -2.178000000    -3.244000000    -3.372000000
C    -4.810000000    -1.271000000    -2.405000000
H    -5.120000000    -0.245000000    -2.221000000
O    -1.874000000    -0.956000000    -4.564000000
H    -1.920000000    -0.388000000    -2.585000000
C    -1.720000000     2.643000000    -4.002000000
C    -0.995000000     1.995000000    -5.169000000
H    -0.496000000     2.853000000    -5.625000000
H    -1.684000000     1.573000000    -5.903000000
C    -0.078000000     0.809000000    -4.831000000
C     1.285000000     1.130000000    -4.586000000
H     1.676000000     2.141000000    -4.659000000
C    -0.515000000    -0.501000000    -4.600000000
C     0.422000000    -1.480000000    -4.208000000
H     0.154000000    -2.533000000    -4.194000000
C     1.794000000    -1.179000000    -4.042000000
O     2.605000000    -2.132000000    -3.512000000
C     2.967000000    -1.996000000    -2.114000000
C     3.003000000    -3.362000000    -1.309000000
C     2.013000000    -4.324000000    -1.518000000
H     1.252000000    -4.113000000    -2.264000000
C     3.975000000    -3.658000000    -0.337000000
H     4.860000000    -3.044000000    -0.194000000
O     4.322000000    -1.413000000    -1.997000000
H     2.217000000    -1.317000000    -1.683000000
C     2.232000000     0.154000000    -4.260000000
C     3.615000000     0.537000000    -4.077000000
H     3.869000000     1.314000000    -4.801000000
H     4.283000000    -0.290000000    -4.327000000
C     3.950000000     0.953000000    -2.641000000
C     4.329000000    -0.052000000    -1.742000000
C     4.751000000     0.402000000    -0.463000000
H     5.025000000    -0.314000000     0.308000000
C     4.503000000     1.693000000    -0.055000000
O     4.548000000     1.912000000     1.306000000
C     3.300000000     1.959000000     1.997000000
H     2.567000000     1.668000000     1.230000000
C     3.274000000     1.013000000     3.141000000
C     2.211000000     1.161000000     4.076000000
H     1.474000000     1.949000000     3.942000000
C     4.247000000     0.081000000     3.391000000
H     5.115000000     0.004000000     2.742000000
C     4.165000000    -0.724000000     4.516000000
O     5.169000000    -1.663000000     4.735000000
C     3.105000000    -0.645000000     5.363000000
H     3.091000000    -1.250000000     6.266000000
C     2.078000000     0.249000000     5.090000000
O     0.981000000     0.192000000     5.817000000
C     0.170000000     1.310000000     6.168000000
C    -1.156000000     1.354000000     5.723000000
H    -1.472000000     0.461000000     5.190000000
C     0.642000000     2.354000000     7.074000000
H     1.584000000     2.183000000     7.588000000
C    -0.180000000     3.439000000     7.319000000
H     0.244000000     4.269000000     7.879000000
C    -1.466000000     3.461000000     6.739000000
H    -2.125000000     4.295000000     6.967000000
C    -1.957000000     2.411000000     6.003000000
O    -3.340000000     2.365000000     5.662000000
C    -3.709000000     2.366000000     4.296000000
C    -4.927000000     1.808000000     3.909000000
H    -5.651000000     1.495000000     4.656000000
C    -5.249000000     1.576000000     2.559000000
O    -6.422000000     0.979000000     2.242000000
C    -6.922000000     0.758000000     0.981000000
C    -6.763000000    -0.491000000     0.445000000
H    -6.345000000    -1.250000000     1.102000000
C    -7.535000000     1.705000000     0.204000000
H    -7.808000000     2.609000000     0.743000000
C    -8.061000000     1.433000000    -1.025000000
H    -8.638000000     2.195000000    -1.542000000
C    -7.842000000     0.163000000    -1.580000000
H    -8.113000000    -0.056000000    -2.610000000
C    -7.177000000    -0.766000000    -0.856000000
O    -6.865000000    -2.010000000    -1.335000000
C    -5.635000000    -2.305000000    -1.909000000
C    -5.208000000    -3.631000000    -1.917000000
H    -5.763000000    -4.459000000    -1.483000000
C    -3.981000000    -3.994000000    -2.386000000
O    -3.627000000    -5.263000000    -2.373000000
C    -2.390000000    -5.780000000    -2.700000000
C    -1.416000000    -5.775000000    -1.671000000
H    -1.654000000    -5.495000000    -0.649000000
C    -2.091000000    -6.070000000    -4.065000000
H    -2.850000000    -6.001000000    -4.840000000
C    -0.756000000    -6.430000000    -4.340000000
H    -0.475000000    -6.578000000    -5.379000000
C     0.125000000    -6.640000000    -3.275000000
H     1.169000000    -6.806000000    -3.527000000
C    -0.096000000    -6.166000000    -1.935000000
O     0.864000000    -6.355000000    -0.991000000
C     1.853000000    -5.443000000    -0.726000000
C     2.757000000    -5.665000000     0.346000000
H     2.674000000    -6.607000000     0.881000000
C     3.787000000    -4.750000000     0.553000000
O     4.770000000    -5.143000000     1.460000000
C     5.510000000    -4.254000000     2.196000000
C     6.880000000    -4.335000000     2.027000000
H     7.473000000    -5.021000000     1.429000000
C     7.683000000    -3.416000000     2.777000000
H     8.749000000    -3.517000000     2.587000000
C     7.113000000    -2.568000000     3.644000000
H     7.690000000    -1.830000000     4.195000000
C     5.731000000    -2.462000000     3.790000000
C     4.893000000    -3.343000000     3.034000000
H     3.831000000    -3.146000000     3.157000000
C    -1.292000000    -0.693000000     1.999000000
H    -1.450000000    -0.577000000     3.068000000
C    -0.675000000     0.308000000     1.278000000
H    -0.435000000     1.229000000     1.802000000
C    -0.335000000     0.022000000    -0.034000000
C     0.430000000     1.013000000    -0.860000000
H     0.327000000     0.708000000    -1.904000000
H    -0.006000000     1.985000000    -0.623000000
H     1.493000000     1.040000000    -0.610000000
C    -0.655000000    -1.200000000    -0.558000000
H    -0.404000000    -1.316000000    -1.609000000
C    -1.348000000    -2.213000000     0.111000000
H    -1.500000000    -3.148000000    -0.422000000
C    -1.716000000    -1.931000000     1.397000000
C    -2.463000000    -2.943000000     2.231000000
O    -2.736000000    -4.094000000     1.808000000
O    -2.470000000    -2.737000000     3.416000000
O    -3.334000000    -5.614000000     6.237000000
H    -2.563000000    -5.573000000     5.672000000
H    -3.970000000    -5.035000000     5.817000000
O    -2.100000000    -4.456000000     8.580000000
H    -2.923000000    -4.542000000     9.062000000
H    -2.336000000    -4.634000000     7.670000000
O    -0.756000000    -8.385000000     1.045000000
H    -0.083000000    -9.064000000     0.991000000
H    -1.222000000    -8.442000000     0.211000000
O    -2.225000000    -6.681000000     2.592000000
H    -1.552000000    -6.746000000     1.915000000
H    -2.606000000    -5.811000000     2.468000000
O     1.323000000    -3.114000000     2.660000000
H     1.116000000    -3.727000000     1.955000000
H     0.689000000    -2.404000000     2.554000000
O    -6.636000000    -2.256000000     4.370000000
H    -6.779000000    -1.518000000     4.962000000
H    -7.433000000    -2.299000000     3.842000000
O    -1.402000000    -2.132000000     5.977000000
H    -1.798000000    -2.359000000     5.135000000
H    -0.548000000    -2.563000000     5.964000000
O    -3.932000000    -0.890000000     6.196000000
H    -3.049000000    -1.226000000     6.349000000
H    -4.018000000    -0.864000000     5.243000000
O    -1.911000000    -1.446000000     8.520000000
H    -1.718000000    -1.601000000     7.596000000
H    -2.300000000    -2.266000000     8.824000000
O    -2.773000000    -9.498000000     2.575000000
H    -3.571000000    -9.136000000     2.962000000
H    -2.293000000    -8.734000000     2.258000000
O    -4.495000000    -7.499000000     0.126000000
H    -4.825000000    -6.735000000     0.599000000
H    -3.884000000    -7.912000000     0.736000000
O    -7.432000000    -3.543000000     1.260000000
H    -7.799000000    -3.839000000     0.427000000
H    -8.136000000    -3.682000000     1.894000000
O    -4.880000000    -7.619000000     4.223000000
H    -4.307000000    -7.126000000     3.636000000
H    -4.600000000    -7.364000000     5.102000000
O     1.067000000    -3.503000000     5.516000000
H     0.632000000    -4.355000000     5.552000000
H     1.187000000    -3.336000000     4.581000000
O    -6.698000000    -5.065000000     6.197000000
H    -5.971000000    -4.557000000     5.838000000
H    -6.280000000    -5.717000000     6.760000000
O    -1.127000000    -4.887000000     4.492000000
H    -1.643000000    -4.249000000     3.998000000
H    -1.055000000    -5.641000000     3.907000000
O    -7.267000000    -6.617000000     3.333000000
H    -6.548000000    -7.098000000     3.744000000
H    -6.876000000    -5.786000000     3.064000000
O    -4.505000000    -3.923000000     4.698000000
H    -5.306000000    -3.465000000     4.445000000
H    -3.824000000    -3.539000000     4.145000000
O    -5.196000000    -5.052000000     1.663000000
H    -4.403000000    -4.556000000     1.866000000
H    -5.832000000    -4.388000000     1.394000000
