218
-1470.32984
C    -3.646000000     2.674000000     1.818000000
H    -3.985000000     2.530000000     0.795000000
C    -2.465000000     3.407000000     1.984000000
C    -1.957000000     3.454000000     3.271000000
H    -1.075000000     4.022000000     3.555000000
C    -1.711000000     3.962000000     0.825000000
O    -2.469000000     4.569000000    -0.220000000
H    -1.155000000     3.111000000     0.402000000
O    -0.676000000     4.862000000     1.311000000
C     0.611000000     4.566000000     0.862000000
C     1.393000000     3.942000000     1.754000000
H     1.082000000     3.749000000     2.777000000
C     2.662000000     3.465000000     1.399000000
O     3.492000000     2.691000000     2.158000000
C     3.133000000     3.760000000     0.143000000
C     4.505000000     3.233000000    -0.389000000
H     4.815000000     3.992000000    -1.111000000
C     4.482000000     1.874000000    -0.933000000
C     4.119000000     1.705000000    -2.256000000
H     3.956000000     2.547000000    -2.924000000
H     5.241000000     3.475000000     0.380000000
C     2.310000000     4.393000000    -0.803000000
H     2.651000000     4.553000000    -1.823000000
C     1.018000000     4.783000000    -0.454000000
C     0.026000000     5.447000000    -1.466000000
H     0.689000000     5.946000000    -2.175000000
H    -0.469000000     6.285000000    -0.971000000
C    -0.913000000     4.450000000    -2.122000000
C    -0.560000000     3.881000000    -3.295000000
H     0.352000000     4.118000000    -3.837000000
C    -2.124000000     4.061000000    -1.501000000
C    -2.996000000     3.133000000    -2.110000000
H    -3.902000000     2.737000000    -1.659000000
C    -2.548000000     2.440000000    -3.233000000
O    -3.236000000     1.383000000    -3.735000000
C    -2.776000000     0.097000000    -3.355000000
C    -3.943000000    -0.828000000    -2.996000000
C    -3.675000000    -2.191000000    -2.999000000
H    -2.713000000    -2.559000000    -3.347000000
C    -5.145000000    -0.442000000    -2.341000000
H    -5.356000000     0.621000000    -2.268000000
O    -2.102000000    -0.440000000    -4.493000000
H    -2.072000000     0.098000000    -2.509000000
C    -1.289000000     2.831000000    -3.796000000
C    -0.869000000     2.164000000    -5.083000000
H    -0.237000000     2.881000000    -5.611000000
H    -1.756000000     1.909000000    -5.667000000
C    -0.051000000     0.942000000    -4.858000000
C     1.326000000     1.112000000    -4.758000000
H     1.812000000     2.080000000    -4.850000000
C    -0.722000000    -0.244000000    -4.500000000
C     0.091000000    -1.396000000    -4.301000000
H    -0.452000000    -2.335000000    -4.230000000
C     1.481000000    -1.301000000    -4.209000000
O     2.183000000    -2.355000000    -3.767000000
C     2.673000000    -2.422000000    -2.387000000
C     2.527000000    -3.783000000    -1.731000000
C     1.410000000    -4.593000000    -2.035000000
H     0.773000000    -4.211000000    -2.828000000
C     3.288000000    -4.239000000    -0.638000000
H     4.230000000    -3.759000000    -0.386000000
O     4.058000000    -1.991000000    -2.393000000
H     1.993000000    -1.798000000    -1.788000000
C     2.119000000    -0.032000000    -4.422000000
C     3.598000000     0.136000000    -4.281000000
H     4.105000000     0.851000000    -4.932000000
H     4.048000000    -0.827000000    -4.532000000
C     4.006000000     0.402000000    -2.824000000
C     4.327000000    -0.708000000    -1.970000000
C     4.568000000    -0.516000000    -0.636000000
H     4.774000000    -1.401000000    -0.040000000
C     4.662000000     0.728000000    -0.087000000
O     4.645000000     0.746000000     1.283000000
C     3.470000000     1.239000000     2.030000000
H     2.644000000     0.998000000     1.345000000
C     3.279000000     0.489000000     3.295000000
C     2.683000000     1.018000000     4.401000000
H     2.546000000     2.096000000     4.358000000
C     3.609000000    -0.889000000     3.340000000
H     4.014000000    -1.421000000     2.483000000
C     3.319000000    -1.645000000     4.462000000
O     3.494000000    -3.012000000     4.486000000
C     2.744000000    -1.078000000     5.602000000
H     2.621000000    -1.597000000     6.549000000
C     2.365000000     0.264000000     5.550000000
O     1.883000000     0.815000000     6.699000000
C     1.065000000     1.935000000     6.779000000
C    -0.159000000     1.939000000     6.063000000
H    -0.467000000     1.108000000     5.434000000
C     1.444000000     3.038000000     7.519000000
H     2.356000000     2.910000000     8.095000000
C     0.715000000     4.282000000     7.433000000
H     1.040000000     5.233000000     7.848000000
C    -0.510000000     4.241000000     6.761000000
H    -1.190000000     5.059000000     6.540000000
C    -0.979000000     3.023000000     6.174000000
O    -2.249000000     3.013000000     5.617000000
C    -2.595000000     2.775000000     4.332000000
C    -3.820000000     2.141000000     4.157000000
H    -4.348000000     1.794000000     5.041000000
C    -4.323000000     2.010000000     2.858000000
O    -5.600000000     1.345000000     2.756000000
C    -6.378000000     1.379000000     1.606000000
C    -6.172000000     0.379000000     0.699000000
H    -5.457000000    -0.424000000     0.861000000
C    -7.377000000     2.332000000     1.537000000
H    -7.470000000     3.156000000     2.240000000
C    -8.221000000     2.204000000     0.447000000
H    -9.044000000     2.904000000     0.329000000
C    -8.171000000     1.094000000    -0.436000000
H    -8.777000000     0.945000000    -1.327000000
C    -7.115000000     0.192000000    -0.285000000
O    -7.141000000    -0.845000000    -1.173000000
C    -5.984000000    -1.319000000    -1.748000000
C    -5.643000000    -2.695000000    -1.815000000
H    -6.284000000    -3.375000000    -1.258000000
C    -4.514000000    -3.204000000    -2.452000000
O    -4.229000000    -4.539000000    -2.428000000
C    -3.194000000    -5.102000000    -3.050000000
C    -2.049000000    -5.328000000    -2.297000000
H    -2.052000000    -5.067000000    -1.242000000
C    -3.260000000    -5.521000000    -4.359000000
H    -4.167000000    -5.329000000    -4.927000000
C    -2.296000000    -6.289000000    -4.899000000
H    -2.319000000    -6.772000000    -5.872000000
C    -1.156000000    -6.607000000    -4.093000000
H    -0.372000000    -7.250000000    -4.486000000
C    -1.025000000    -6.107000000    -2.798000000
O    -0.005000000    -6.598000000    -1.983000000
C     1.172000000    -5.883000000    -1.621000000
C     2.037000000    -6.320000000    -0.574000000
H     1.896000000    -7.340000000    -0.227000000
C     3.046000000    -5.500000000    -0.077000000
O     3.882000000    -6.085000000     0.793000000
C     4.422000000    -5.417000000     1.864000000
C     5.790000000    -5.491000000     2.012000000
H     6.388000000    -6.132000000     1.368000000
C     6.430000000    -4.718000000     3.060000000
H     7.506000000    -4.625000000     3.183000000
C     5.582000000    -3.898000000     3.850000000
H     6.084000000    -3.263000000     4.576000000
C     4.241000000    -3.812000000     3.664000000
C     3.623000000    -4.676000000     2.776000000
H     2.544000000    -4.634000000     2.652000000
C    -1.556000000    -0.083000000     1.984000000
H    -1.680000000     0.305000000     2.992000000
C    -0.572000000     0.531000000     1.200000000
H    -0.088000000     1.453000000     1.510000000
C    -0.318000000     0.094000000    -0.064000000
C     0.602000000     0.907000000    -1.041000000
H     1.622000000     0.977000000    -0.658000000
H     0.567000000     0.640000000    -2.100000000
H     0.182000000     1.914000000    -0.994000000
C    -1.074000000    -0.968000000    -0.544000000
H    -0.905000000    -1.299000000    -1.566000000
C    -1.989000000    -1.651000000     0.207000000
H    -2.559000000    -2.482000000    -0.200000000
C    -2.260000000    -1.187000000     1.525000000
C    -3.293000000    -1.888000000     2.300000000
O    -4.013000000    -2.671000000     1.744000000
O    -3.342000000    -1.753000000     3.493000000
O    -4.745000000    -2.479000000     8.150000000
H    -4.447000000    -2.183000000     7.290000000
H    -4.135000000    -3.177000000     8.388000000
O     0.438000000    -7.281000000     2.052000000
H     1.341000000    -7.598000000     2.050000000
H     0.424000000    -6.605000000     2.731000000
O    -4.150000000     0.837000000     7.888000000
H    -4.209000000     0.068000000     7.322000000
H    -4.579000000     0.569000000     8.701000000
O     0.168000000    -3.154000000     1.516000000
H    -0.159000000    -2.426000000     0.988000000
H    -0.292000000    -3.922000000     1.177000000
O    -5.605000000    -6.751000000     2.688000000
H    -6.241000000    -6.527000000     3.367000000
H    -5.833000000    -7.644000000     2.430000000
O    -4.947000000    -5.187000000     0.790000000
H    -4.947000000    -4.253000000     0.997000000
H    -5.097000000    -5.620000000     1.630000000
O    -6.366000000    -2.407000000     3.032000000
H    -5.480000000    -2.587000000     2.720000000
H    -6.920000000    -2.523000000     2.260000000
O    -8.237000000     1.494000000     5.718000000
H    -7.742000000     2.195000000     6.143000000
H    -7.618000000     0.767000000     5.657000000
O    -1.053000000    -1.484000000     5.024000000
H    -1.867000000    -1.642000000     4.545000000
H    -0.456000000    -2.164000000     4.713000000
O    -4.319000000    -1.010000000     5.789000000
H    -5.227000000    -0.795000000     5.577000000
H    -3.897000000    -1.133000000     4.939000000
O    -0.453000000    -1.613000000     7.761000000
H     0.336000000    -2.147000000     7.853000000
H    -0.641000000    -1.623000000     6.822000000
O    -8.308000000    -2.475000000     1.003000000
H    -9.124000000    -2.006000000     0.829000000
H    -7.655000000    -2.027000000     0.464000000
O    -4.166000000    -4.380000000     4.979000000
H    -5.039000000    -4.076000000     5.229000000
H    -3.841000000    -3.708000000     4.379000000
O     0.596000000    -3.643000000     4.259000000
H     0.487000000    -3.565000000     3.311000000
H     1.314000000    -3.046000000     4.468000000
O    -1.895000000    -6.270000000     5.529000000
H    -2.566000000    -5.640000000     5.268000000
H    -1.694000000    -6.044000000     6.437000000
O    -1.902000000    -4.841000000     1.265000000
H    -2.007000000    -5.718000000     1.633000000
H    -2.684000000    -4.368000000     1.549000000
O    -6.585000000    -0.317000000     4.550000000
H    -6.082000000     0.357000000     4.092000000
H    -6.604000000    -1.056000000     3.943000000
O    -8.547000000    -2.892000000     4.496000000
H    -7.646000000    -2.951000000     4.178000000
H    -8.973000000    -3.679000000     4.156000000
O    -4.516000000    -7.466000000    -0.910000000
H    -4.919000000    -7.154000000    -1.720000000
H    -4.449000000    -6.686000000    -0.360000000
