218
-1456.85450
C    -3.494000000     2.617000000     2.679000000
H    -3.662000000     2.765000000     1.615000000
C    -2.284000000     2.774000000     3.274000000
C    -2.109000000     2.363000000     4.570000000
H    -1.095000000     2.410000000     4.960000000
C    -1.060000000     3.269000000     2.472000000
O    -1.515000000     4.255000000     1.475000000
H    -0.623000000     2.418000000     1.928000000
O    -0.048000000     3.910000000     3.302000000
C     1.195000000     3.465000000     2.907000000
C     1.730000000     2.297000000     3.452000000
H     1.219000000     1.741000000     4.234000000
C     2.978000000     1.864000000     3.052000000
O     3.488000000     0.678000000     3.551000000
C     3.580000000     2.418000000     1.976000000
C     4.940000000     1.948000000     1.422000000
H     5.461000000     2.831000000     1.045000000
C     4.663000000     0.907000000     0.364000000
C     4.699000000     1.255000000    -1.012000000
H     4.808000000     2.262000000    -1.408000000
H     5.533000000     1.536000000     2.241000000
C     2.927000000     3.406000000     1.264000000
H     3.525000000     3.869000000     0.483000000
C     1.801000000     4.053000000     1.775000000
C     1.203000000     5.204000000     1.052000000
H     2.061000000     5.725000000     0.624000000
H     0.831000000     6.016000000     1.680000000
C     0.309000000     4.831000000    -0.094000000
C     0.843000000     4.799000000    -1.397000000
H     1.905000000     4.923000000    -1.595000000
C    -0.993000000     4.360000000     0.166000000
C    -1.825000000     4.040000000    -0.898000000
H    -2.835000000     3.716000000    -0.660000000
C    -1.293000000     3.890000000    -2.186000000
O    -2.127000000     3.385000000    -3.133000000
C    -2.007000000     1.992000000    -3.476000000
C    -3.266000000     1.229000000    -3.582000000
C    -3.414000000     0.016000000    -4.220000000
H    -2.502000000    -0.406000000    -4.635000000
C    -4.349000000     1.646000000    -2.778000000
H    -4.199000000     2.454000000    -2.066000000
O    -1.219000000     1.812000000    -4.682000000
H    -1.459000000     1.488000000    -2.667000000
C     0.048000000     4.279000000    -2.403000000
C     0.574000000     4.079000000    -3.859000000
H     1.450000000     4.708000000    -4.032000000
H    -0.188000000     4.414000000    -4.567000000
C     0.946000000     2.614000000    -4.114000000
C     2.288000000     2.262000000    -3.808000000
H     2.978000000     3.043000000    -3.500000000
C     0.102000000     1.565000000    -4.524000000
C     0.563000000     0.227000000    -4.594000000
H    -0.125000000    -0.589000000    -4.799000000
C     1.928000000    -0.027000000    -4.293000000
O     2.241000000    -1.365000000    -4.273000000
C     2.432000000    -1.924000000    -2.929000000
C     1.793000000    -3.308000000    -2.864000000
C     0.555000000    -3.467000000    -3.573000000
H     0.089000000    -2.615000000    -4.062000000
C     2.358000000    -4.361000000    -2.184000000
H     3.304000000    -4.251000000    -1.660000000
O     3.812000000    -1.942000000    -2.561000000
H     1.890000000    -1.184000000    -2.322000000
C     2.766000000     0.975000000    -3.824000000
C     4.233000000     0.658000000    -3.453000000
H     4.876000000     1.523000000    -3.627000000
H     4.772000000    -0.100000000    -4.024000000
C     4.353000000     0.308000000    -1.987000000
C     4.262000000    -1.034000000    -1.621000000
C     4.235000000    -1.413000000    -0.293000000
H     4.116000000    -2.452000000     0.005000000
C     4.438000000    -0.441000000     0.679000000
O     4.428000000    -0.905000000     2.004000000
C     3.280000000    -0.574000000     2.832000000
H     2.510000000    -0.472000000     2.053000000
C     2.711000000    -1.667000000     3.672000000
C     1.897000000    -1.468000000     4.785000000
H     1.597000000    -0.459000000     5.055000000
C     2.808000000    -2.973000000     3.176000000
H     3.255000000    -3.101000000     2.194000000
C     2.215000000    -4.024000000     3.824000000
O     2.257000000    -5.340000000     3.365000000
C     1.384000000    -3.815000000     4.903000000
H     0.910000000    -4.713000000     5.290000000
C     1.203000000    -2.538000000     5.356000000
O     0.224000000    -2.269000000     6.297000000
C    -0.091000000    -0.991000000     6.832000000
C    -1.393000000    -0.526000000     6.689000000
H    -2.181000000    -1.077000000     6.183000000
C     0.905000000    -0.189000000     7.458000000
H     1.900000000    -0.623000000     7.522000000
C     0.621000000     1.129000000     7.823000000
H     1.429000000     1.742000000     8.214000000
C    -0.662000000     1.564000000     7.655000000
H    -0.806000000     2.634000000     7.784000000
C    -1.675000000     0.785000000     7.053000000
O    -2.867000000     1.380000000     6.660000000
C    -3.088000000     1.729000000     5.327000000
C    -4.330000000     1.513000000     4.715000000
H    -5.197000000     1.108000000     5.232000000
C    -4.543000000     1.954000000     3.394000000
O    -5.734000000     1.694000000     2.753000000
C    -6.122000000     2.334000000     1.564000000
C    -6.380000000     1.535000000     0.405000000
H    -6.296000000     0.452000000     0.442000000
C    -6.248000000     3.700000000     1.450000000
H    -5.926000000     4.238000000     2.338000000
C    -6.455000000     4.314000000     0.206000000
H    -6.442000000     5.400000000     0.247000000
C    -6.437000000     3.558000000    -1.012000000
H    -6.499000000     4.059000000    -1.975000000
C    -6.493000000     2.155000000    -0.875000000
O    -6.615000000     1.390000000    -2.017000000
C    -5.524000000     0.867000000    -2.737000000
C    -5.692000000    -0.268000000    -3.588000000
H    -6.640000000    -0.801000000    -3.614000000
C    -4.626000000    -0.699000000    -4.305000000
O    -4.748000000    -1.750000000    -5.183000000
C    -3.579000000    -2.417000000    -5.488000000
C    -3.079000000    -3.435000000    -4.683000000
H    -3.548000000    -3.569000000    -3.712000000
C    -2.947000000    -2.175000000    -6.716000000
H    -3.426000000    -1.518000000    -7.437000000
C    -1.812000000    -2.850000000    -7.094000000
H    -1.380000000    -2.687000000    -8.078000000
C    -1.259000000    -3.721000000    -6.143000000
H    -0.336000000    -4.232000000    -6.403000000
C    -1.845000000    -4.046000000    -4.951000000
O    -1.280000000    -4.966000000    -4.076000000
C    -0.076000000    -4.671000000    -3.514000000
C     0.460000000    -5.688000000    -2.739000000
H    -0.177000000    -6.560000000    -2.610000000
C     1.627000000    -5.599000000    -2.022000000
O     1.980000000    -6.688000000    -1.288000000
C     2.678000000    -6.648000000    -0.082000000
C     3.812000000    -7.364000000     0.053000000
H     4.208000000    -7.758000000    -0.880000000
C     4.539000000    -7.354000000     1.254000000
H     5.526000000    -7.809000000     1.238000000
C     4.019000000    -6.653000000     2.338000000
H     4.530000000    -6.744000000     3.294000000
C     2.873000000    -5.867000000     2.215000000
C     2.140000000    -5.925000000     1.017000000
H     1.096000000    -5.627000000     1.049000000
C    -1.110000000    -0.890000000     1.901000000
H    -1.243000000    -0.717000000     2.966000000
C    -0.252000000    -0.004000000     1.235000000
H     0.301000000     0.676000000     1.878000000
C    -0.102000000    -0.166000000    -0.141000000
C     0.791000000     0.837000000    -0.847000000
H     0.749000000     1.844000000    -0.428000000
H     1.811000000     0.486000000    -1.015000000
H     0.425000000     0.958000000    -1.868000000
C    -0.826000000    -1.144000000    -0.889000000
H    -0.768000000    -1.257000000    -1.969000000
C    -1.781000000    -1.922000000    -0.175000000
H    -2.424000000    -2.592000000    -0.740000000
C    -1.866000000    -1.855000000     1.236000000
C    -2.813000000    -2.703000000     2.017000000
O    -3.465000000    -3.553000000     1.461000000
O    -2.911000000    -2.603000000     3.234000000
O    -7.953000000    -1.351000000    -0.789000000
H    -8.482000000    -1.314000000     0.008000000
H    -7.160000000    -1.820000000    -0.529000000
O    -7.198000000    -5.123000000    -0.598000000
H    -7.157000000    -5.189000000    -1.552000000
H    -7.228000000    -6.031000000    -0.297000000
O     0.686000000    -8.407000000     1.999000000
H    -0.054000000    -8.036000000     1.518000000
H     0.960000000    -7.707000000     2.592000000
O    -2.485000000    -8.083000000    -1.991000000
H    -2.890000000    -7.215000000    -2.009000000
H    -3.174000000    -8.675000000    -2.292000000
O    -3.609000000    -5.081000000    -0.818000000
H    -3.491000000    -4.677000000     0.041000000
H    -4.532000000    -5.335000000    -0.838000000
O    -6.007000000    -3.041000000     0.734000000
H    -5.137000000    -3.247000000     1.075000000
H    -6.304000000    -3.855000000     0.327000000
O    -2.278000000    -3.644000000     5.658000000
H    -2.436000000    -3.334000000     4.767000000
H    -1.580000000    -3.078000000     5.988000000
O    -5.462000000    -1.839000000     4.329000000
H    -5.656000000    -2.689000000     4.724000000
H    -4.561000000    -1.920000000     4.018000000
O    -3.948000000    -5.028000000     7.340000000
H    -3.191000000    -4.720000000     6.842000000
H    -4.701000000    -4.809000000     6.791000000
O    -2.777000000    -9.337000000     3.633000000
H    -2.785000000    -8.421000000     3.356000000
H    -2.620000000    -9.830000000     2.827000000
O    -7.404000000     0.034000000     3.890000000
H    -6.826000000     0.620000000     3.401000000
H    -6.941000000    -0.804000000     3.901000000
O    -4.623000000    -5.965000000    -3.520000000
H    -4.123000000    -5.512000000    -2.841000000
H    -5.497000000    -5.578000000    -3.471000000
O    -1.736000000    -5.687000000     2.959000000
H    -1.936000000    -4.769000000     2.776000000
H    -1.529000000    -6.062000000     2.103000000
O    -5.063000000    -5.368000000     2.619000000
H    -4.368000000    -4.932000000     2.126000000
H    -5.010000000    -4.988000000     3.496000000
O    -8.647000000    -3.611000000     2.068000000
H    -7.801000000    -3.416000000     1.664000000
H    -8.878000000    -4.477000000     1.731000000
O    -5.542000000    -8.098000000     2.946000000
H    -6.154000000    -8.197000000     3.676000000
H    -5.267000000    -7.182000000     2.987000000
O    -1.602000000    -6.637000000     5.803000000
H    -0.776000000    -7.118000000     5.738000000
H    -1.831000000    -6.430000000     4.897000000
O    -1.639000000    -7.264000000     0.780000000
H    -1.875000000    -7.241000000    -0.147000000
H    -1.994000000    -8.094000000     1.098000000
O    -6.247000000    -5.061000000     5.344000000
H    -7.120000000    -4.721000000     5.540000000
H    -6.371000000    -6.006000000     5.258000000
