218
-1426.45395
C    -3.191000000     1.404000000     2.577000000
H    -3.116000000     1.701000000     1.534000000
C    -2.307000000     1.965000000     3.514000000
C    -2.526000000     1.753000000     4.870000000
H    -1.994000000     2.345000000     5.610000000
C    -1.246000000     2.866000000     2.835000000
O    -1.676000000     3.949000000     1.930000000
H    -0.706000000     2.194000000     2.152000000
O    -0.344000000     3.481000000     3.807000000
C     0.972000000     3.227000000     3.399000000
C     1.618000000     2.085000000     3.952000000
H     1.013000000     1.548000000     4.679000000
C     2.850000000     1.664000000     3.576000000
O     3.240000000     0.412000000     3.937000000
C     3.599000000     2.404000000     2.625000000
C     4.888000000     1.876000000     2.085000000
H     5.488000000     2.741000000     1.794000000
C     4.622000000     1.087000000     0.809000000
C     4.689000000     1.706000000    -0.458000000
H     4.797000000     2.787000000    -0.489000000
H     5.459000000     1.374000000     2.868000000
C     2.953000000     3.550000000     2.034000000
H     3.411000000     4.117000000     1.227000000
C     1.674000000     3.979000000     2.502000000
C     1.038000000     5.099000000     1.751000000
H     1.823000000     5.795000000     1.450000000
H     0.378000000     5.738000000     2.341000000
C     0.170000000     4.661000000     0.522000000
C     0.761000000     4.735000000    -0.802000000
H     1.784000000     5.047000000    -0.995000000
C    -1.073000000     4.058000000     0.712000000
C    -1.777000000     3.607000000    -0.386000000
H    -2.705000000     3.054000000    -0.266000000
C    -1.299000000     3.837000000    -1.686000000
O    -2.018000000     3.257000000    -2.670000000
C    -1.528000000     2.031000000    -3.253000000
C    -2.744000000     1.128000000    -3.521000000
C    -2.804000000     0.198000000    -4.589000000
H    -1.904000000     0.039000000    -5.178000000
C    -3.955000000     1.309000000    -2.863000000
H    -3.929000000     1.924000000    -1.967000000
O    -0.759000000     2.260000000    -4.461000000
H    -0.905000000     1.411000000    -2.591000000
C    -0.013000000     4.411000000    -1.892000000
C     0.516000000     4.526000000    -3.309000000
H     1.246000000     5.333000000    -3.393000000
H    -0.331000000     4.757000000    -3.958000000
C     1.266000000     3.327000000    -3.649000000
C     2.583000000     3.067000000    -3.163000000
H     3.072000000     3.893000000    -2.654000000
C     0.605000000     2.272000000    -4.301000000
C     1.216000000     1.032000000    -4.523000000
H     0.613000000     0.272000000    -5.013000000
C     2.518000000     0.850000000    -4.121000000
O     2.989000000    -0.440000000    -4.279000000
C     2.822000000    -1.121000000    -3.077000000
C     2.066000000    -2.431000000    -3.264000000
C     1.449000000    -2.784000000    -4.515000000
H     1.598000000    -2.243000000    -5.446000000
C     1.799000000    -3.241000000    -2.183000000
H     2.170000000    -3.003000000    -1.190000000
O     4.122000000    -1.335000000    -2.598000000
H     2.196000000    -0.526000000    -2.397000000
C     3.229000000     1.840000000    -3.472000000
C     4.646000000     1.601000000    -2.989000000
H     5.157000000     2.543000000    -2.781000000
H     5.153000000     1.077000000    -3.802000000
C     4.588000000     0.830000000    -1.649000000
C     4.412000000    -0.564000000    -1.487000000
C     4.229000000    -1.124000000    -0.179000000
H     4.011000000    -2.181000000    -0.050000000
C     4.429000000    -0.305000000     0.953000000
O     4.074000000    -0.916000000     2.177000000
C     2.894000000    -0.516000000     2.921000000
H     2.029000000    -0.266000000     2.290000000
C     2.334000000    -1.686000000     3.642000000
C     1.517000000    -1.498000000     4.721000000
H     1.170000000    -0.526000000     5.061000000
C     2.567000000    -2.984000000     3.128000000
H     3.263000000    -3.082000000     2.299000000
C     1.815000000    -4.062000000     3.676000000
O     2.126000000    -5.419000000     3.248000000
C     1.128000000    -3.844000000     4.821000000
H     0.825000000    -4.721000000     5.387000000
C     0.941000000    -2.574000000     5.346000000
O     0.254000000    -2.584000000     6.491000000
C    -0.430000000    -1.592000000     7.208000000
C    -1.491000000    -0.996000000     6.547000000
H    -1.786000000    -1.263000000     5.535000000
C    -0.095000000    -1.192000000     8.554000000
H     0.647000000    -1.747000000     9.121000000
C    -0.916000000    -0.228000000     9.170000000
H    -0.828000000     0.055000000    10.216000000
C    -1.993000000     0.315000000     8.535000000
H    -2.798000000     0.736000000     9.132000000
C    -2.330000000    -0.051000000     7.248000000
O    -3.512000000     0.407000000     6.604000000
C    -3.369000000     0.720000000     5.243000000
C    -4.168000000     0.114000000     4.369000000
H    -4.954000000    -0.597000000     4.610000000
C    -4.073000000     0.430000000     2.973000000
O    -4.970000000    -0.182000000     2.148000000
C    -5.605000000     0.633000000     1.211000000
C    -5.720000000     0.196000000    -0.133000000
H    -5.247000000    -0.745000000    -0.401000000
C    -5.998000000     1.939000000     1.618000000
H    -5.832000000     2.192000000     2.663000000
C    -6.673000000     2.771000000     0.663000000
H    -6.916000000     3.794000000     0.938000000
C    -6.748000000     2.356000000    -0.651000000
H    -7.114000000     3.119000000    -1.333000000
C    -6.247000000     1.088000000    -1.083000000
O    -6.267000000     0.728000000    -2.392000000
C    -5.098000000     0.549000000    -3.114000000
C    -5.106000000    -0.369000000    -4.219000000
H    -5.958000000    -0.991000000    -4.484000000
C    -3.906000000    -0.593000000    -4.875000000
O    -3.832000000    -1.445000000    -5.975000000
C    -2.682000000    -1.933000000    -6.567000000
C    -1.923000000    -2.919000000    -5.997000000
H    -2.294000000    -3.282000000    -5.042000000
C    -2.346000000    -1.488000000    -7.795000000
H    -2.855000000    -0.747000000    -8.405000000
C    -1.197000000    -1.961000000    -8.464000000
H    -0.854000000    -1.561000000    -9.414000000
C    -0.281000000    -2.810000000    -7.719000000
H     0.642000000    -3.121000000    -8.202000000
C    -0.736000000    -3.388000000    -6.533000000
O     0.095000000    -4.268000000    -5.814000000
C     0.699000000    -3.911000000    -4.680000000
C     0.414000000    -4.678000000    -3.564000000
H    -0.296000000    -5.501000000    -3.603000000
C     0.990000000    -4.338000000    -2.392000000
O     0.706000000    -5.090000000    -1.341000000
C     1.667000000    -5.381000000    -0.486000000
C     2.693000000    -6.213000000    -0.865000000
H     2.788000000    -6.275000000    -1.946000000
C     3.597000000    -6.674000000     0.091000000
H     4.544000000    -7.119000000    -0.204000000
C     3.406000000    -6.406000000     1.427000000
H     4.198000000    -6.771000000     2.075000000
C     2.325000000    -5.656000000     1.891000000
C     1.396000000    -5.211000000     0.933000000
H     0.594000000    -4.561000000     1.274000000
C    -1.862000000    -2.397000000     1.697000000
H    -2.263000000    -2.674000000     2.668000000
C    -0.808000000    -1.463000000     1.564000000
H    -0.269000000    -1.206000000     2.472000000
C    -0.545000000    -0.904000000     0.279000000
C     0.406000000     0.118000000     0.094000000
H     0.317000000     0.556000000    -0.903000000
H     0.229000000     0.936000000     0.795000000
H     1.376000000    -0.382000000     0.121000000
C    -1.337000000    -1.338000000    -0.792000000
H    -1.097000000    -0.990000000    -1.794000000
C    -2.326000000    -2.383000000    -0.612000000
H    -2.823000000    -2.766000000    -1.500000000
C    -2.640000000    -2.867000000     0.663000000
C    -3.731000000    -3.850000000     0.860000000
O    -4.526000000    -4.148000000     0.017000000
O    -3.811000000    -4.317000000     1.958000000
O    -6.669000000    -3.639000000     5.964000000
H    -6.512000000    -3.207000000     5.124000000
H    -7.609000000    -3.821000000     5.967000000
O    -7.837000000    -1.334000000    -2.202000000
H    -7.863000000    -0.378000000    -2.254000000
H    -7.713000000    -1.520000000    -1.271000000
O    -8.144000000    -7.661000000    -1.066000000
H    -7.438000000    -7.168000000    -0.649000000
H    -7.707000000    -8.185000000    -1.737000000
O    -5.002000000    -6.615000000     2.701000000
H    -4.577000000    -5.798000000     2.440000000
H    -5.072000000    -6.554000000     3.654000000
O    -3.794000000    -5.594000000    -3.516000000
H    -3.306000000    -5.894000000    -2.750000000
H    -4.325000000    -4.867000000    -3.192000000
O    -8.686000000    -4.492000000    -1.061000000
H    -9.017000000    -4.801000000    -1.904000000
H    -8.806000000    -5.235000000    -0.469000000
O    -5.133000000    -3.544000000    -2.505000000
H    -5.535000000    -2.680000000    -2.418000000
H    -4.929000000    -3.805000000    -1.607000000
O    -6.387000000    -6.201000000     0.263000000
H    -6.170000000    -6.462000000     1.158000000
H    -5.818000000    -5.451000000     0.089000000
O    -1.772000000    -6.037000000     2.870000000
H    -2.559000000    -5.498000000     2.952000000
H    -2.000000000    -6.694000000     2.212000000
O    -6.963000000    -2.346000000     0.315000000
H    -6.054000000    -2.572000000     0.512000000
H    -7.381000000    -3.183000000     0.113000000
O    -2.127000000    -8.346000000     4.413000000
H    -2.007000000    -8.496000000     5.351000000
H    -2.187000000    -7.395000000     4.329000000
O    -9.194000000    -1.043000000     1.521000000
H    -9.501000000    -0.621000000     0.718000000
H    -8.417000000    -1.533000000     1.252000000
O    -4.548000000    -9.167000000    -0.491000000
H    -3.782000000    -8.873000000     0.003000000
H    -5.211000000    -9.343000000     0.176000000
O    -5.988000000    -3.098000000     3.256000000
H    -5.158000000    -3.430000000     2.912000000
H    -6.620000000    -3.791000000     3.066000000
O    -2.684000000    -8.269000000     1.324000000
H    -2.993000000    -8.443000000     2.213000000
H    -1.855000000    -8.744000000     1.261000000
O    -2.588000000    -6.375000000    -0.960000000
H    -2.939000000    -5.801000000    -0.280000000
H    -2.020000000    -6.985000000    -0.488000000
O    -7.394000000    -0.853000000     3.588000000
H    -6.670000000    -1.418000000     3.319000000
H    -8.037000000    -0.936000000     2.883000000
O    -3.175000000    -4.318000000     5.801000000
H    -2.339000000    -4.736000000     5.594000000
H    -3.619000000    -4.240000000     4.956000000
O    -7.915000000    -4.699000000     2.489000000
H    -8.724000000    -4.466000000     2.033000000
H    -8.204000000    -5.000000000     3.351000000
