218
-1461.21938
C    -3.257000000    -3.346000000     0.908000000
H    -3.271000000    -3.184000000    -0.166000000
C    -3.639000000    -2.263000000     1.681000000
C    -3.603000000    -2.416000000     3.090000000
H    -3.793000000    -1.605000000     3.788000000
C    -3.897000000    -0.875000000     1.075000000
O    -4.835000000    -1.001000000    -0.043000000
H    -2.947000000    -0.371000000     0.843000000
O    -4.613000000     0.057000000     1.990000000
C    -4.053000000     1.322000000     2.025000000
C    -3.063000000     1.525000000     2.977000000
H    -2.794000000     0.757000000     3.697000000
C    -2.372000000     2.690000000     3.044000000
O    -1.265000000     2.744000000     3.835000000
C    -2.534000000     3.664000000     2.030000000
C    -1.632000000     4.892000000     2.022000000
H    -2.107000000     5.805000000     1.658000000
C    -0.380000000     4.624000000     1.208000000
C    -0.366000000     4.994000000    -0.146000000
H    -1.297000000     5.404000000    -0.530000000
H    -1.431000000     5.264000000     3.029000000
C    -3.468000000     3.443000000     1.022000000
H    -3.627000000     4.148000000     0.210000000
C    -4.188000000     2.230000000     0.972000000
C    -5.149000000     1.902000000    -0.134000000
H    -5.522000000     2.826000000    -0.580000000
H    -5.950000000     1.277000000     0.268000000
C    -4.583000000     1.112000000    -1.249000000
C    -4.029000000     1.799000000    -2.298000000
H    -4.184000000     2.874000000    -2.247000000
C    -4.446000000    -0.255000000    -1.173000000
C    -3.786000000    -0.927000000    -2.195000000
H    -3.531000000    -1.973000000    -2.044000000
C    -3.348000000    -0.285000000    -3.329000000
O    -2.713000000    -1.020000000    -4.311000000
C    -1.260000000    -0.929000000    -4.294000000
C    -0.546000000    -2.285000000    -4.527000000
C     0.779000000    -2.376000000    -5.003000000
H     1.385000000    -1.537000000    -5.336000000
C    -1.250000000    -3.435000000    -4.254000000
H    -2.275000000    -3.323000000    -3.912000000
O    -0.787000000     0.104000000    -5.142000000
H    -0.954000000    -0.742000000    -3.254000000
C    -3.415000000     1.147000000    -3.343000000
C    -2.931000000     1.984000000    -4.459000000
H    -3.545000000     2.860000000    -4.682000000
H    -3.003000000     1.401000000    -5.380000000
C    -1.442000000     2.189000000    -4.183000000
C    -1.069000000     3.384000000    -3.504000000
H    -1.835000000     4.108000000    -3.240000000
C    -0.408000000     1.321000000    -4.552000000
C     0.951000000     1.674000000    -4.376000000
H     1.713000000     0.946000000    -4.645000000
C     1.278000000     2.800000000    -3.637000000
O     2.613000000     2.901000000    -3.208000000
C     2.885000000     2.752000000    -1.795000000
C     4.054000000     1.850000000    -1.481000000
C     4.103000000     0.623000000    -2.103000000
H     3.322000000     0.423000000    -2.832000000
C     4.981000000     2.064000000    -0.411000000
H     5.049000000     3.031000000     0.082000000
O     2.938000000     4.020000000    -1.046000000
H     2.135000000     2.123000000    -1.292000000
C     0.284000000     3.709000000    -3.221000000
C     0.675000000     4.957000000    -2.484000000
H    -0.046000000     5.774000000    -2.562000000
H     1.632000000     5.225000000    -2.936000000
C     0.700000000     4.735000000    -0.960000000
C     1.863000000     4.253000000    -0.288000000
C     1.918000000     4.022000000     1.100000000
H     2.865000000     3.768000000     1.569000000
C     0.738000000     4.124000000     1.786000000
O     0.754000000     3.674000000     3.072000000
C     0.024000000     2.471000000     3.259000000
H    -0.001000000     2.101000000     2.223000000
C     0.828000000     1.446000000     4.153000000
C     0.217000000     0.519000000     5.024000000
H    -0.861000000     0.491000000     5.164000000
C     2.230000000     1.596000000     4.293000000
H     2.695000000     2.340000000     3.652000000
C     2.969000000     0.793000000     5.108000000
O     4.306000000     1.117000000     5.225000000
C     2.413000000    -0.096000000     5.884000000
H     2.961000000    -0.696000000     6.606000000
C     0.998000000    -0.219000000     5.887000000
O     0.337000000    -1.140000000     6.700000000
C    -1.008000000    -1.540000000     6.593000000
C    -1.437000000    -2.518000000     5.746000000
H    -0.711000000    -3.061000000     5.147000000
C    -1.963000000    -0.710000000     7.268000000
H    -1.647000000     0.139000000     7.868000000
C    -3.301000000    -1.128000000     7.377000000
H    -3.965000000    -0.597000000     8.054000000
C    -3.729000000    -2.250000000     6.648000000
H    -4.785000000    -2.507000000     6.672000000
C    -2.738000000    -2.902000000     5.788000000
O    -3.140000000    -3.835000000     4.947000000
C    -3.104000000    -3.608000000     3.620000000
C    -2.827000000    -4.698000000     2.820000000
H    -2.494000000    -5.627000000     3.275000000
C    -2.834000000    -4.541000000     1.436000000
O    -2.242000000    -5.482000000     0.653000000
C    -2.591000000    -5.758000000    -0.618000000
C    -1.693000000    -5.707000000    -1.725000000
H    -0.635000000    -5.533000000    -1.546000000
C    -3.948000000    -6.043000000    -0.785000000
H    -4.579000000    -6.143000000     0.095000000
C    -4.470000000    -6.238000000    -2.075000000
H    -5.517000000    -6.443000000    -2.283000000
C    -3.602000000    -6.131000000    -3.180000000
H    -3.980000000    -6.187000000    -4.198000000
C    -2.241000000    -5.930000000    -2.924000000
O    -1.362000000    -5.813000000    -3.981000000
C    -0.693000000    -4.709000000    -4.390000000
C     0.544000000    -4.795000000    -5.040000000
H     1.016000000    -5.754000000    -5.239000000
C     1.278000000    -3.634000000    -5.318000000
O     2.576000000    -3.707000000    -5.848000000
C     3.622000000    -3.023000000    -5.348000000
C     3.678000000    -2.556000000    -4.000000000
H     2.806000000    -2.707000000    -3.369000000
C     4.730000000    -2.671000000    -6.195000000
H     4.714000000    -2.987000000    -7.235000000
C     5.854000000    -2.020000000    -5.743000000
H     6.689000000    -1.814000000    -6.407000000
C     5.917000000    -1.716000000    -4.368000000
H     6.805000000    -1.204000000    -4.006000000
C     4.823000000    -1.962000000    -3.557000000
O     4.906000000    -1.635000000    -2.245000000
C     4.993000000    -0.371000000    -1.669000000
C     5.839000000    -0.162000000    -0.577000000
H     6.364000000    -1.001000000    -0.126000000
C     5.732000000     1.048000000     0.084000000
O     6.662000000     1.304000000     1.144000000
C     6.227000000     1.894000000     2.360000000
C     6.731000000     3.138000000     2.645000000
H     7.441000000     3.635000000     1.990000000
C     6.332000000     3.799000000     3.806000000
H     6.813000000     4.697000000     4.186000000
C     5.455000000     3.075000000     4.638000000
H     5.092000000     3.468000000     5.585000000
C     5.053000000     1.808000000     4.293000000
C     5.343000000     1.196000000     3.094000000
H     4.913000000     0.252000000     2.769000000
C     1.701000000    -2.334000000    -0.472000000
H     1.857000000    -3.253000000    -1.031000000
C     0.697000000    -1.407000000    -0.741000000
H     0.010000000    -1.540000000    -1.573000000
C     0.519000000    -0.288000000     0.039000000
C    -0.544000000     0.706000000    -0.339000000
H    -0.898000000     1.212000000     0.561000000
H    -0.225000000     1.413000000    -1.107000000
H    -1.428000000     0.207000000    -0.741000000
C     1.403000000    -0.049000000     1.086000000
H     1.497000000     0.915000000     1.579000000
C     2.301000000    -1.044000000     1.501000000
H     2.907000000    -0.830000000     2.377000000
C     2.518000000    -2.124000000     0.699000000
C     3.394000000    -3.300000000     1.101000000
O     4.308000000    -3.153000000     1.918000000
O     3.258000000    -4.404000000     0.647000000
O     8.501000000    -2.726000000     3.250000000
H     7.735000000    -2.488000000     3.773000000
H     8.139000000    -3.006000000     2.409000000
O     7.197000000    -5.691000000     5.301000000
H     6.454000000    -5.327000000     4.820000000
H     7.732000000    -4.931000000     5.527000000
O     4.164000000    -2.905000000     6.134000000
H     3.369000000    -3.385000000     5.904000000
H     4.557000000    -3.417000000     6.841000000
O     5.181000000    -5.003000000     3.703000000
H     4.631000000    -5.720000000     3.387000000
H     4.821000000    -4.222000000     3.283000000
O     3.812000000    -9.229000000     2.452000000
H     4.764000000    -9.322000000     2.483000000
H     3.668000000    -8.309000000     2.233000000
O     0.418000000    -5.164000000     3.339000000
H     0.007000000    -4.722000000     2.596000000
H     0.500000000    -6.076000000     3.060000000
O     3.096000000    -6.669000000     2.187000000
H     3.163000000    -5.850000000     1.696000000
H     2.159000000    -6.867000000     2.194000000
O     0.485000000    -7.908000000    -0.357000000
H     1.106000000    -7.212000000    -0.574000000
H     0.593000000    -8.551000000    -1.057000000
O     0.464000000    -7.570000000     2.253000000
H     0.376000000    -7.751000000     1.318000000
H    -0.177000000    -8.145000000     2.670000000
O     5.722000000    -1.964000000     4.107000000
H     5.457000000    -2.474000000     4.872000000
H     4.985000000    -2.041000000     3.501000000
O     2.223000000    -6.084000000    -1.176000000
H     2.606000000    -5.892000000    -2.032000000
H     2.496000000    -5.353000000    -0.622000000
O     6.945000000    -8.098000000     0.623000000
H     6.333000000    -7.362000000     0.619000000
H     7.358000000    -8.062000000     1.486000000
O     5.498000000    -5.796000000    -0.384000000
H     5.218000000    -6.324000000    -1.131000000
H     4.699000000    -5.360000000    -0.086000000
O     2.218000000    -4.448000000     5.494000000
H     1.915000000    -5.070000000     6.154000000
H     1.615000000    -4.563000000     4.760000000
O     4.969000000    -8.171000000    -2.051000000
H     5.241000000    -9.053000000    -1.796000000
H     4.020000000    -8.168000000    -1.925000000
O     3.374000000    -5.629000000    -3.800000000
H     3.217000000    -6.429000000    -4.303000000
H     3.067000000    -4.924000000    -4.369000000
O     9.599000000    -3.065000000     0.439000000
H     9.864000000    -3.922000000     0.773000000
H     8.664000000    -3.157000000     0.259000000
O     6.769000000    -3.691000000     1.292000000
H     5.872000000    -3.442000000     1.519000000
H     6.706000000    -4.614000000     1.044000000
O     6.137000000    -4.987000000    -4.388000000
H     5.652000000    -4.174000000    -4.528000000
H     5.519000000    -5.558000000    -3.931000000
