218
-1424.60846
C    -3.368000000     2.067000000     2.160000000
H    -3.361000000     2.386000000     1.120000000
C    -2.319000000     2.199000000     2.985000000
C    -2.543000000     1.757000000     4.275000000
H    -1.712000000     1.884000000     4.964000000
C    -0.994000000     2.834000000     2.543000000
O    -1.298000000     3.988000000     1.723000000
H    -0.558000000     2.038000000     1.921000000
O    -0.071000000     3.155000000     3.566000000
C     1.225000000     2.690000000     3.380000000
C     1.620000000     1.542000000     4.034000000
H     0.795000000     1.035000000     4.529000000
C     2.873000000     0.986000000     3.834000000
O     3.014000000    -0.331000000     4.198000000
C     3.656000000     1.572000000     2.829000000
C     4.937000000     0.995000000     2.399000000
H     5.584000000     1.832000000     2.127000000
C     4.720000000     0.212000000     1.191000000
C     4.963000000     0.776000000    -0.056000000
H     5.268000000     1.811000000    -0.185000000
H     5.464000000     0.477000000     3.203000000
C     3.264000000     2.796000000     2.243000000
H     3.827000000     3.264000000     1.439000000
C     2.029000000     3.380000000     2.492000000
C     1.586000000     4.659000000     1.865000000
H     2.427000000     5.301000000     1.593000000
H     1.037000000     5.173000000     2.657000000
C     0.784000000     4.583000000     0.577000000
C     1.443000000     4.753000000    -0.612000000
H     2.524000000     4.866000000    -0.592000000
C    -0.574000000     4.311000000     0.603000000
C    -1.273000000     4.265000000    -0.605000000
H    -2.353000000     4.161000000    -0.676000000
C    -0.588000000     4.314000000    -1.765000000
O    -1.260000000     4.077000000    -2.885000000
C    -1.185000000     2.658000000    -3.214000000
C    -2.571000000     2.098000000    -3.577000000
C    -2.663000000     0.924000000    -4.282000000
H    -1.801000000     0.401000000    -4.689000000
C    -3.748000000     2.750000000    -3.220000000
H    -3.816000000     3.623000000    -2.576000000
O    -0.299000000     2.623000000    -4.279000000
H    -0.783000000     2.268000000    -2.268000000
C     0.770000000     4.608000000    -1.772000000
C     1.548000000     4.572000000    -3.113000000
H     2.430000000     5.214000000    -3.074000000
H     0.905000000     4.960000000    -3.906000000
C     1.939000000     3.123000000    -3.430000000
C     3.163000000     2.649000000    -2.985000000
H     3.962000000     3.269000000    -2.588000000
C     1.039000000     2.265000000    -4.058000000
C     1.383000000     0.922000000    -4.329000000
H     0.726000000     0.246000000    -4.870000000
C     2.605000000     0.425000000    -3.864000000
O     2.834000000    -0.924000000    -4.052000000
C     2.589000000    -1.756000000    -2.908000000
C     1.913000000    -3.054000000    -3.244000000
C     1.043000000    -3.113000000    -4.350000000
H     1.076000000    -2.262000000    -5.025000000
C     2.022000000    -4.141000000    -2.395000000
H     2.619000000    -4.159000000    -1.486000000
O     3.867000000    -1.921000000    -2.270000000
H     1.928000000    -1.161000000    -2.260000000
C     3.457000000     1.274000000    -3.139000000
C     4.796000000     0.725000000    -2.532000000
H     5.495000000     1.551000000    -2.382000000
H     5.354000000     0.096000000    -3.229000000
C     4.673000000     0.038000000    -1.199000000
C     4.120000000    -1.248000000    -1.128000000
C     3.850000000    -1.809000000     0.140000000
H     3.383000000    -2.777000000     0.306000000
C     4.200000000    -1.116000000     1.302000000
O     3.878000000    -1.766000000     2.498000000
C     2.701000000    -1.329000000     3.191000000
H     1.972000000    -0.885000000     2.499000000
C     1.987000000    -2.509000000     3.808000000
C     1.040000000    -2.299000000     4.836000000
H     0.869000000    -1.328000000     5.292000000
C     2.084000000    -3.700000000     3.183000000
H     2.765000000    -3.943000000     2.372000000
C     1.241000000    -4.762000000     3.536000000
O     1.265000000    -5.951000000     2.863000000
C     0.336000000    -4.551000000     4.543000000
H    -0.257000000    -5.383000000     4.914000000
C     0.159000000    -3.340000000     5.168000000
O    -0.875000000    -3.174000000     6.109000000
C    -1.305000000    -1.959000000     6.676000000
C    -2.298000000    -1.213000000     6.033000000
H    -2.732000000    -1.588000000     5.110000000
C    -0.790000000    -1.519000000     7.925000000
H    -0.052000000    -2.145000000     8.420000000
C    -1.151000000    -0.236000000     8.316000000
H    -0.674000000     0.195000000     9.192000000
C    -2.206000000     0.481000000     7.750000000
H    -2.480000000     1.405000000     8.253000000
C    -2.634000000     0.057000000     6.502000000
O    -3.789000000     0.654000000     6.079000000
C    -3.752000000     1.232000000     4.794000000
C    -4.801000000     1.131000000     3.911000000
H    -5.809000000     0.810000000     4.160000000
C    -4.616000000     1.515000000     2.586000000
O    -5.683000000     1.531000000     1.691000000
C    -5.945000000     2.475000000     0.728000000
C    -5.919000000     2.074000000    -0.646000000
H    -5.555000000     1.102000000    -0.968000000
C    -6.218000000     3.773000000     1.101000000
H    -6.279000000     3.955000000     2.171000000
C    -6.432000000     4.766000000     0.119000000
H    -6.684000000     5.760000000     0.480000000
C    -6.441000000     4.406000000    -1.251000000
H    -6.686000000     5.223000000    -1.925000000
C    -6.249000000     3.068000000    -1.635000000
O    -6.057000000     2.786000000    -2.979000000
C    -4.936000000     2.210000000    -3.510000000
C    -5.054000000     1.007000000    -4.175000000
H    -6.078000000     0.648000000    -4.237000000
C    -3.915000000     0.353000000    -4.623000000
O    -3.977000000    -0.768000000    -5.288000000
C    -2.898000000    -1.413000000    -5.948000000
C    -2.456000000    -2.568000000    -5.468000000
H    -2.905000000    -2.991000000    -4.573000000
C    -2.315000000    -0.842000000    -7.062000000
H    -2.653000000     0.102000000    -7.480000000
C    -1.227000000    -1.455000000    -7.600000000
H    -0.660000000    -1.031000000    -8.425000000
C    -0.716000000    -2.664000000    -7.096000000
H     0.108000000    -3.206000000    -7.554000000
C    -1.328000000    -3.242000000    -6.000000000
O    -0.865000000    -4.307000000    -5.327000000
C     0.259000000    -4.246000000    -4.501000000
C     0.378000000    -5.300000000    -3.615000000
H    -0.153000000    -6.242000000    -3.731000000
C     1.264000000    -5.276000000    -2.650000000
O     1.467000000    -6.442000000    -1.953000000
C     2.094000000    -6.442000000    -0.677000000
C     3.397000000    -6.920000000    -0.538000000
H     3.999000000    -7.336000000    -1.342000000
C     4.029000000    -6.950000000     0.725000000
H     5.034000000    -7.329000000     0.894000000
C     3.271000000    -6.656000000     1.837000000
H     3.756000000    -6.588000000     2.808000000
C     1.959000000    -6.213000000     1.741000000
C     1.323000000    -6.293000000     0.476000000
H     0.262000000    -6.063000000     0.424000000
C    -2.044000000    -1.532000000     1.362000000
H    -2.421000000    -1.872000000     2.323000000
C    -0.852000000    -0.849000000     1.281000000
H    -0.176000000    -0.709000000     2.121000000
C    -0.497000000    -0.224000000     0.060000000
C     0.687000000     0.673000000     0.074000000
H     1.078000000     0.733000000     1.091000000
H     1.401000000     0.060000000    -0.479000000
H     0.547000000     1.675000000    -0.337000000
C    -1.291000000    -0.318000000    -1.025000000
H    -0.942000000     0.128000000    -1.953000000
C    -2.475000000    -1.096000000    -0.960000000
H    -3.139000000    -1.136000000    -1.819000000
C    -2.872000000    -1.740000000     0.239000000
C    -4.142000000    -2.459000000     0.331000000
O    -5.115000000    -2.259000000    -0.355000000
O    -4.278000000    -3.313000000     1.148000000
O    -2.986000000    -5.496000000    -3.426000000
H    -3.725000000    -4.947000000    -3.162000000
H    -2.345000000    -4.881000000    -3.781000000
O    -9.485000000    -0.468000000     0.368000000
H    -9.856000000    -0.715000000    -0.479000000
H   -10.156000000    -0.715000000     1.004000000
O    -7.986000000    -1.435000000    -4.174000000
H    -8.851000000    -1.030000000    -4.244000000
H    -7.768000000    -1.374000000    -3.244000000
O    -4.040000000    -5.396000000     4.061000000
H    -4.923000000    -5.626000000     3.769000000
H    -3.546000000    -5.268000000     3.251000000
O    -6.093000000    -6.407000000    -3.477000000
H    -6.119000000    -5.674000000    -2.863000000
H    -6.658000000    -7.071000000    -3.082000000
O    -7.493000000    -1.720000000    -1.361000000
H    -6.582000000    -1.715000000    -1.065000000
H    -7.962000000    -1.209000000    -0.702000000
O    -9.566000000    -4.787000000    -1.814000000
H   -10.482000000    -4.602000000    -1.607000000
H    -9.292000000    -4.056000000    -2.368000000
O    -8.645000000    -6.084000000     0.315000000
H    -9.112000000    -5.751000000     1.081000000
H    -9.028000000    -5.611000000    -0.424000000
O    -2.937000000    -7.883000000    -2.006000000
H    -2.101000000    -8.297000000    -1.791000000
H    -2.694000000    -7.093000000    -2.490000000
O    -2.416000000    -4.947000000     1.702000000
H    -3.143000000    -4.364000000     1.485000000
H    -1.661000000    -4.366000000     1.791000000
O    -7.304000000    -1.690000000     6.202000000
H    -6.461000000    -1.843000000     5.777000000
H    -7.172000000    -1.974000000     7.107000000
O    -6.682000000    -7.912000000     0.175000000
H    -7.513000000    -7.495000000    -0.055000000
H    -6.043000000    -7.199000000     0.152000000
O    -6.766000000    -2.464000000     2.631000000
H    -6.120000000    -2.427000000     1.926000000
H    -6.966000000    -3.395000000     2.724000000
O    -8.251000000    -0.144000000     2.752000000
H    -7.775000000    -0.969000000     2.851000000
H    -8.568000000    -0.158000000     1.849000000
O    -2.637000000    -7.267000000     0.692000000
H    -2.702000000    -7.205000000    -0.261000000
H    -2.511000000    -6.364000000     0.983000000
O    -5.193000000    -5.467000000    -0.327000000
H    -5.036000000    -4.653000000     0.152000000
H    -5.122000000    -5.220000000    -1.249000000
O    -6.552000000    -5.704000000     2.598000000
H    -6.256000000    -5.596000000     1.694000000
H    -7.420000000    -6.099000000     2.520000000
O    -5.051000000    -3.170000000     5.836000000
H    -4.375000000    -3.304000000     6.500000000
H    -4.657000000    -3.491000000     5.025000000
O    -5.413000000    -3.603000000    -2.700000000
H    -5.286000000    -3.112000000    -1.888000000
H    -6.254000000    -3.294000000    -3.037000000
