218
-1464.59184
C    -3.161000000     1.954000000     2.535000000
H    -2.923000000     2.261000000     1.519000000
C    -2.287000000     2.244000000     3.573000000
C    -2.550000000     1.606000000     4.843000000
H    -1.939000000     1.882000000     5.698000000
C    -0.964000000     2.869000000     3.098000000
O    -1.017000000     4.263000000     2.540000000
H    -0.476000000     2.126000000     2.451000000
O    -0.010000000     2.884000000     4.196000000
C     1.190000000     2.344000000     4.009000000
C     1.441000000     1.024000000     4.379000000
H     0.721000000     0.477000000     4.983000000
C     2.548000000     0.332000000     3.946000000
O     2.593000000    -1.032000000     4.138000000
C     3.474000000     1.039000000     3.222000000
C     4.791000000     0.301000000     2.818000000
H     5.604000000     1.029000000     2.831000000
C     4.657000000    -0.441000000     1.444000000
C     4.908000000     0.299000000     0.259000000
H     5.297000000     1.313000000     0.310000000
H     5.081000000    -0.429000000     3.576000000
C     3.291000000     2.350000000     2.775000000
H     3.993000000     2.891000000     2.145000000
C     2.144000000     3.047000000     3.250000000
C     1.901000000     4.480000000     2.814000000
H     2.860000000     4.993000000     2.715000000
H     1.363000000     5.075000000     3.555000000
C     1.170000000     4.472000000     1.475000000
C     1.976000000     4.639000000     0.334000000
H     3.053000000     4.785000000     0.347000000
C    -0.224000000     4.374000000     1.405000000
C    -0.893000000     4.466000000     0.197000000
H    -1.964000000     4.401000000     0.027000000
C    -0.108000000     4.536000000    -0.934000000
O    -0.759000000     4.413000000    -2.139000000
C    -0.782000000     3.110000000    -2.835000000
C    -2.065000000     2.631000000    -3.460000000
C    -2.058000000     2.063000000    -4.698000000
H    -1.100000000     1.910000000    -5.188000000
C    -3.289000000     2.886000000    -2.858000000
H    -3.405000000     3.214000000    -1.828000000
O     0.264000000     3.062000000    -3.855000000
H    -0.556000000     2.307000000    -2.118000000
C     1.276000000     4.702000000    -0.926000000
C     2.036000000     4.754000000    -2.225000000
H     2.973000000     5.313000000    -2.174000000
H     1.403000000     5.185000000    -3.003000000
C     2.417000000     3.324000000    -2.690000000
C     3.627000000     2.729000000    -2.273000000
H     4.344000000     3.340000000    -1.733000000
C     1.524000000     2.587000000    -3.521000000
C     1.843000000     1.334000000    -4.012000000
H     1.233000000     0.742000000    -4.689000000
C     2.979000000     0.710000000    -3.549000000
O     3.073000000    -0.610000000    -3.850000000
C     2.628000000    -1.496000000    -2.875000000
C     1.651000000    -2.525000000    -3.469000000
C     1.022000000    -2.358000000    -4.737000000
H     1.228000000    -1.506000000    -5.380000000
C     1.194000000    -3.557000000    -2.643000000
H     1.521000000    -3.673000000    -1.613000000
O     3.751000000    -2.109000000    -2.280000000
H     2.101000000    -0.899000000    -2.116000000
C     3.877000000     1.388000000    -2.685000000
C     5.105000000     0.623000000    -2.148000000
H     5.893000000     1.329000000    -1.877000000
H     5.398000000    -0.041000000    -2.964000000
C     4.706000000    -0.286000000    -0.988000000
C     4.235000000    -1.584000000    -1.086000000
C     3.954000000    -2.364000000     0.106000000
H     3.518000000    -3.359000000     0.143000000
C     4.105000000    -1.721000000     1.358000000
O     3.610000000    -2.335000000     2.491000000
C     2.314000000    -1.870000000     3.055000000
H     1.901000000    -1.331000000     2.190000000
C     1.324000000    -2.956000000     3.448000000
C     0.413000000    -2.821000000     4.546000000
H     0.467000000    -1.926000000     5.162000000
C     1.237000000    -4.124000000     2.653000000
H     1.917000000    -4.259000000     1.816000000
C     0.355000000    -5.161000000     2.959000000
O     0.298000000    -6.260000000     2.179000000
C    -0.586000000    -5.022000000     4.008000000
H    -1.407000000    -5.724000000     4.123000000
C    -0.574000000    -3.820000000     4.763000000
O    -1.529000000    -3.749000000     5.654000000
C    -1.784000000    -2.583000000     6.387000000
C    -2.684000000    -1.656000000     5.880000000
H    -2.997000000    -1.793000000     4.848000000
C    -1.219000000    -2.486000000     7.652000000
H    -0.588000000    -3.299000000     8.002000000
C    -1.538000000    -1.473000000     8.503000000
H    -1.107000000    -1.361000000     9.494000000
C    -2.506000000    -0.504000000     8.061000000
H    -2.851000000     0.304000000     8.701000000
C    -3.037000000    -0.595000000     6.750000000
O    -3.973000000     0.237000000     6.232000000
C    -3.728000000     0.892000000     5.043000000
C    -4.583000000     0.626000000     4.011000000
H    -5.401000000    -0.058000000     4.223000000
C    -4.349000000     1.194000000     2.785000000
O    -5.174000000     0.980000000     1.677000000
C    -5.461000000     1.998000000     0.727000000
C    -5.374000000     1.788000000    -0.641000000
H    -4.877000000     0.875000000    -0.958000000
C    -5.910000000     3.190000000     1.278000000
H    -5.943000000     3.308000000     2.358000000
C    -6.350000000     4.163000000     0.442000000
H    -6.732000000     5.068000000     0.907000000
C    -6.323000000     3.951000000    -0.950000000
H    -6.590000000     4.737000000    -1.653000000
C    -5.775000000     2.820000000    -1.487000000
O    -5.686000000     2.659000000    -2.862000000
C    -4.468000000     2.442000000    -3.400000000
C    -4.433000000     1.779000000    -4.614000000
H    -5.361000000     1.575000000    -5.142000000
C    -3.221000000     1.632000000    -5.287000000
O    -3.218000000     0.895000000    -6.468000000
C    -2.199000000     0.058000000    -6.923000000
C    -1.867000000    -1.187000000    -6.333000000
H    -2.481000000    -1.608000000    -5.541000000
C    -1.452000000     0.547000000    -8.028000000
H    -1.764000000     1.476000000    -8.497000000
C    -0.378000000    -0.178000000    -8.476000000
H     0.264000000     0.124000000    -9.299000000
C    -0.060000000    -1.373000000    -7.940000000
H     0.740000000    -1.909000000    -8.445000000
C    -0.808000000    -1.903000000    -6.911000000
O    -0.456000000    -3.123000000    -6.495000000
C     0.119000000    -3.273000000    -5.247000000
C    -0.038000000    -4.468000000    -4.518000000
H    -0.756000000    -5.183000000    -4.913000000
C     0.410000000    -4.537000000    -3.207000000
O     0.127000000    -5.641000000    -2.511000000
C     0.893000000    -6.090000000    -1.484000000
C     2.127000000    -6.766000000    -1.670000000
H     2.486000000    -7.091000000    -2.642000000
C     2.779000000    -7.067000000    -0.492000000
H     3.763000000    -7.511000000    -0.619000000
C     2.222000000    -6.922000000     0.754000000
H     2.737000000    -7.219000000     1.663000000
C     0.960000000    -6.351000000     0.931000000
C     0.367000000    -5.878000000    -0.199000000
H    -0.589000000    -5.367000000    -0.115000000
C    -1.957000000    -0.991000000     1.063000000
H    -2.442000000    -1.455000000     1.918000000
C    -0.719000000    -0.430000000     1.210000000
H    -0.329000000    -0.288000000     2.215000000
C    -0.060000000     0.032000000     0.073000000
C     1.294000000     0.563000000     0.254000000
H     1.452000000     0.610000000     1.333000000
H     2.097000000     0.001000000    -0.229000000
H     1.443000000     1.581000000    -0.112000000
C    -0.602000000    -0.113000000    -1.200000000
H    -0.127000000     0.234000000    -2.114000000
C    -1.827000000    -0.805000000    -1.320000000
H    -2.317000000    -1.145000000    -2.229000000
C    -2.567000000    -1.233000000    -0.201000000
C    -3.856000000    -1.932000000    -0.367000000
O    -4.498000000    -1.906000000    -1.380000000
O    -4.348000000    -2.476000000     0.612000000
O    -6.231000000    -4.167000000    -0.304000000
H    -6.318000000    -3.857000000     0.597000000
H    -5.774000000    -3.459000000    -0.758000000
O    -3.092000000    -7.290000000    -0.999000000
H    -2.373000000    -7.849000000    -0.705000000
H    -3.748000000    -7.901000000    -1.334000000
O    -8.770000000     0.578000000    -3.083000000
H    -8.616000000     1.268000000    -3.729000000
H    -7.954000000     0.078000000    -3.068000000
O    -6.449000000    -0.907000000    -3.012000000
H    -6.000000000    -1.162000000    -3.818000000
H    -5.922000000    -1.293000000    -2.312000000
O    -4.584000000    -3.149000000     3.100000000
H    -4.544000000    -3.084000000     2.146000000
H    -5.512000000    -3.045000000     3.309000000
O    -9.317000000    -2.137000000     1.495000000
H    -9.801000000    -1.589000000     0.878000000
H    -8.397000000    -1.931000000     1.329000000
O    -6.810000000    -1.332000000     1.134000000
H    -5.913000000    -1.508000000     0.852000000
H    -6.736000000    -0.571000000     1.709000000
O    -7.032000000    -2.544000000     4.062000000
H    -6.771000000    -2.501000000     4.982000000
H    -7.573000000    -1.766000000     3.930000000
O    -4.235000000    -4.613000000     5.504000000
H    -3.294000000    -4.553000000     5.671000000
H    -4.371000000    -4.093000000     4.711000000
O    -8.710000000    -4.771000000    -0.007000000
H    -9.034000000    -4.029000000     0.505000000
H    -7.778000000    -4.590000000    -0.126000000
O   -10.063000000     0.562000000    -0.186000000
H    -9.400000000     0.174000000    -0.757000000
H   -10.285000000     1.393000000    -0.606000000
O    -5.956000000    -5.005000000    -3.703000000
H    -5.738000000    -5.898000000    -3.970000000
H    -5.222000000    -4.733000000    -3.153000000
O    -8.407000000    -4.980000000    -2.950000000
H    -8.235000000    -5.187000000    -2.031000000
H    -7.539000000    -4.938000000    -3.352000000
O    -5.150000000    -1.774000000    -5.359000000
H    -4.772000000    -2.649000000    -5.437000000
H    -5.636000000    -1.649000000    -6.174000000
O    -2.651000000    -7.773000000     2.989000000
H    -2.153000000    -8.574000000     2.823000000
H    -2.279000000    -7.131000000     2.384000000
O    -2.716000000    -4.703000000     0.802000000
H    -3.217000000    -5.306000000     0.253000000
H    -3.286000000    -3.941000000     0.905000000
O    -7.900000000    -2.767000000    -4.363000000
H    -7.936000000    -3.605000000    -3.901000000
H    -7.473000000    -2.172000000    -3.746000000
O    -3.548000000    -4.192000000    -2.336000000
H    -3.477000000    -3.278000000    -2.058000000
H    -2.884000000    -4.651000000    -1.821000000
O    -5.321000000    -6.603000000     0.645000000
H    -5.229000000    -5.693000000     0.363000000
H    -4.916000000    -7.113000000    -0.056000000
