218
-1472.45501
C    -2.696000000     2.246000000     3.605000000
H    -2.820000000     2.770000000     2.660000000
C    -1.415000000     2.076000000     4.133000000
C    -1.213000000     1.273000000     5.266000000
H    -0.266000000     1.059000000     5.753000000
C    -0.168000000     2.650000000     3.434000000
O    -0.350000000     4.012000000     3.096000000
H     0.023000000     2.126000000     2.486000000
O     0.973000000     2.565000000     4.276000000
C     2.151000000     2.155000000     3.612000000
C     2.454000000     0.815000000     3.811000000
H     1.804000000     0.181000000     4.409000000
C     3.469000000     0.235000000     3.117000000
O     3.655000000    -1.122000000     3.263000000
C     4.223000000     0.995000000     2.207000000
C     5.453000000     0.460000000     1.403000000
H     6.119000000     1.302000000     1.204000000
C     5.030000000    -0.181000000     0.155000000
C     4.941000000     0.584000000    -0.996000000
H     5.300000000     1.610000000    -0.983000000
H     6.049000000    -0.183000000     2.053000000
C     3.821000000     2.329000000     2.006000000
H     4.328000000     2.910000000     1.240000000
C     2.836000000     2.955000000     2.755000000
C     2.415000000     4.375000000     2.534000000
H     3.353000000     4.778000000     2.149000000
H     2.220000000     4.890000000     3.477000000
C     1.301000000     4.511000000     1.437000000
C     1.727000000     4.671000000     0.149000000
H     2.749000000     4.526000000    -0.190000000
C    -0.038000000     4.394000000     1.788000000
C    -1.057000000     4.422000000     0.756000000
H    -2.108000000     4.379000000     1.032000000
C    -0.619000000     4.570000000    -0.583000000
O    -1.549000000     4.541000000    -1.527000000
C    -1.565000000     3.318000000    -2.269000000
C    -3.019000000     2.864000000    -2.409000000
C    -3.340000000     1.799000000    -3.301000000
H    -2.665000000     1.286000000    -3.981000000
C    -4.031000000     3.334000000    -1.545000000
H    -3.766000000     4.155000000    -0.884000000
O    -0.888000000     3.437000000    -3.498000000
H    -1.095000000     2.547000000    -1.641000000
C     0.761000000     4.780000000    -0.878000000
C     1.284000000     4.846000000    -2.300000000
H     2.290000000     5.271000000    -2.278000000
H     0.643000000     5.428000000    -2.966000000
C     1.426000000     3.481000000    -2.917000000
C     2.696000000     2.895000000    -2.849000000
H     3.560000000     3.350000000    -2.370000000
C     0.375000000     2.839000000    -3.548000000
C     0.514000000     1.510000000    -4.012000000
H    -0.336000000     1.057000000    -4.516000000
C     1.768000000     0.968000000    -4.044000000
O     1.831000000    -0.310000000    -4.425000000
C     1.905000000    -1.312000000    -3.473000000
C     1.011000000    -2.450000000    -3.870000000
C     0.057000000    -2.254000000    -4.884000000
H    -0.030000000    -1.332000000    -5.453000000
C     0.934000000    -3.680000000    -3.206000000
H     1.669000000    -3.991000000    -2.467000000
O     3.253000000    -1.715000000    -3.240000000
H     1.447000000    -0.896000000    -2.564000000
C     2.869000000     1.648000000    -3.487000000
C     4.251000000     0.971000000    -3.429000000
H     4.933000000     1.824000000    -3.435000000
H     4.588000000     0.421000000    -4.310000000
C     4.374000000     0.077000000    -2.183000000
C     3.848000000    -1.235000000    -2.141000000
C     3.994000000    -2.088000000    -1.046000000
H     3.554000000    -3.082000000    -1.057000000
C     4.605000000    -1.515000000     0.076000000
O     4.467000000    -2.232000000     1.222000000
C     3.328000000    -2.013000000     2.064000000
H     2.712000000    -1.354000000     1.434000000
C     2.536000000    -3.285000000     2.319000000
C     1.490000000    -3.173000000     3.203000000
H     1.322000000    -2.185000000     3.623000000
C     2.742000000    -4.486000000     1.595000000
H     3.543000000    -4.665000000     0.882000000
C     1.915000000    -5.552000000     1.806000000
O     2.167000000    -6.781000000     1.322000000
C     0.844000000    -5.412000000     2.736000000
H     0.161000000    -6.237000000     2.922000000
C     0.689000000    -4.282000000     3.501000000
O    -0.485000000    -4.096000000     4.298000000
C    -0.497000000    -3.353000000     5.375000000
C    -1.315000000    -2.155000000     5.453000000
H    -1.863000000    -1.800000000     4.584000000
C     0.249000000    -3.827000000     6.510000000
H     0.982000000    -4.619000000     6.379000000
C     0.196000000    -2.984000000     7.668000000
H     0.726000000    -3.245000000     8.580000000
C    -0.671000000    -1.903000000     7.732000000
H    -0.811000000    -1.432000000     8.701000000
C    -1.389000000    -1.410000000     6.620000000
O    -2.191000000    -0.284000000     6.826000000
C    -2.349000000     0.604000000     5.773000000
C    -3.580000000     0.833000000     5.277000000
H    -4.402000000     0.233000000     5.660000000
C    -3.799000000     1.655000000     4.188000000
O    -5.091000000     1.762000000     3.617000000
C    -5.409000000     2.776000000     2.789000000
C    -5.796000000     2.500000000     1.485000000
H    -5.984000000     1.469000000     1.194000000
C    -5.408000000     4.109000000     3.243000000
H    -5.220000000     4.325000000     4.292000000
C    -5.692000000     5.147000000     2.377000000
H    -5.625000000     6.164000000     2.754000000
C    -6.026000000     4.843000000     1.046000000
H    -6.382000000     5.670000000     0.436000000
C    -6.106000000     3.529000000     0.628000000
O    -6.390000000     3.160000000    -0.661000000
C    -5.388000000     2.861000000    -1.553000000
C    -5.591000000     1.802000000    -2.442000000
H    -6.503000000     1.211000000    -2.460000000
C    -4.654000000     1.312000000    -3.355000000
O    -4.836000000     0.103000000    -3.987000000
C    -4.126000000    -0.255000000    -5.119000000
C    -3.454000000    -1.479000000    -5.069000000
H    -3.480000000    -2.143000000    -4.208000000
C    -3.988000000     0.589000000    -6.222000000
H    -4.672000000     1.420000000    -6.377000000
C    -3.226000000     0.233000000    -7.332000000
H    -3.302000000     0.816000000    -8.247000000
C    -2.650000000    -1.040000000    -7.287000000
H    -2.073000000    -1.282000000    -8.176000000
C    -2.723000000    -1.837000000    -6.163000000
O    -1.866000000    -2.921000000    -6.135000000
C    -0.958000000    -3.173000000    -5.097000000
C    -1.103000000    -4.329000000    -4.315000000
H    -1.987000000    -4.960000000    -4.350000000
C    -0.067000000    -4.594000000    -3.448000000
O    -0.156000000    -5.794000000    -2.698000000
C     0.956000000    -6.338000000    -2.091000000
C     2.134000000    -6.598000000    -2.840000000
H     2.133000000    -6.305000000    -3.886000000
C     3.289000000    -6.922000000    -2.157000000
H     4.233000000    -7.151000000    -2.646000000
C     3.330000000    -6.979000000    -0.738000000
H     4.213000000    -7.199000000    -0.144000000
C     2.131000000    -6.781000000    -0.066000000
C     0.959000000    -6.423000000    -0.746000000
H     0.082000000    -6.046000000    -0.227000000
C    -0.985000000    -2.331000000     1.291000000
H    -1.047000000    -2.864000000     2.236000000
C    -0.172000000    -1.166000000     1.258000000
H     0.399000000    -0.982000000     2.164000000
C    -0.044000000    -0.393000000     0.123000000
C     0.949000000     0.772000000     0.128000000
H     0.468000000     1.751000000     0.065000000
H     1.581000000     0.766000000     1.018000000
H     1.589000000     0.700000000    -0.753000000
C    -0.727000000    -0.792000000    -0.983000000
H    -0.684000000    -0.192000000    -1.889000000
C    -1.558000000    -1.997000000    -0.993000000
H    -2.083000000    -2.325000000    -1.886000000
C    -1.717000000    -2.714000000     0.148000000
C    -2.718000000    -3.850000000     0.228000000
O    -3.632000000    -3.977000000    -0.585000000
O    -2.579000000    -4.591000000     1.172000000
O    -2.950000000    -7.389000000     0.862000000
H    -3.745000000    -7.564000000     1.365000000
H    -2.781000000    -6.457000000     0.998000000
O    -6.301000000    -3.855000000    -1.213000000
H    -5.402000000    -4.002000000    -0.920000000
H    -6.213000000    -3.294000000    -1.983000000
O    -5.274000000    -1.809000000     2.731000000
H    -4.874000000    -1.483000000     1.925000000
H    -5.992000000    -1.201000000     2.905000000
O    -3.871000000    -0.569000000     0.502000000
H    -4.131000000    -1.069000000    -0.271000000
H    -2.914000000    -0.554000000     0.467000000
O    -2.745000000    -7.724000000    -4.406000000
H    -2.329000000    -8.573000000    -4.256000000
H    -2.717000000    -7.289000000    -3.554000000
O    -6.110000000    -2.198000000    -3.511000000
H    -5.590000000    -1.432000000    -3.754000000
H    -6.130000000    -2.736000000    -4.302000000
O    -1.325000000    -8.911000000     2.583000000
H    -1.328000000    -9.867000000     2.638000000
H    -2.158000000    -8.693000000     2.166000000
O    -7.282000000    -1.601000000     0.190000000
H    -7.728000000    -2.447000000     0.236000000
H    -7.187000000    -1.431000000    -0.747000000
O    -8.297000000    -5.963000000    -0.604000000
H    -8.941000000    -6.399000000    -1.162000000
H    -7.463000000    -6.092000000    -1.055000000
O    -8.242000000    -4.014000000     1.150000000
H    -8.481000000    -4.809000000     0.673000000
H    -7.286000000    -3.992000000     1.114000000
O    -4.473000000    -2.465000000     5.367000000
H    -4.622000000    -2.465000000     4.421000000
H    -4.355000000    -3.389000000     5.591000000
O    -1.669000000    -7.070000000     4.564000000
H    -1.865000000    -6.363000000     3.948000000
H    -1.735000000    -7.869000000     4.041000000
O    -3.480000000    -6.368000000    -1.774000000
H    -3.263000000    -5.458000000    -1.573000000
H    -3.205000000    -6.857000000    -0.999000000
O    -7.125000000    -4.727000000     4.437000000
H    -7.618000000    -3.907000000     4.417000000
H    -6.509000000    -4.654000000     3.707000000
O    -7.114000000    -7.170000000     2.387000000
H    -7.167000000    -6.475000000     1.732000000
H    -8.026000000    -7.389000000     2.578000000
O    -5.359000000    -4.225000000     1.557000000
H    -4.733000000    -4.232000000     0.833000000
H    -5.247000000    -3.365000000     1.962000000
O    -3.639000000    -5.329000000     3.533000000
H    -2.994000000    -4.862000000     3.002000000
H    -4.440000000    -5.310000000     3.010000000
O    -6.384000000    -6.316000000    -2.565000000
H    -6.301000000    -5.489000000    -2.091000000
H    -5.483000000    -6.616000000    -2.685000000
O    -2.138000000    -9.319000000    -0.852000000
H    -1.186000000    -9.228000000    -0.891000000
H    -2.413000000    -8.679000000    -0.196000000
