218
-1464.82511
C    -3.159000000     1.619000000     3.805000000
H    -3.355000000     2.569000000     3.314000000
C    -1.924000000     1.197000000     4.260000000
C    -1.796000000    -0.049000000     4.929000000
H    -0.820000000    -0.399000000     5.257000000
C    -0.748000000     1.968000000     3.751000000
O    -1.016000000     3.339000000     3.703000000
H    -0.616000000     1.616000000     2.717000000
O     0.364000000     1.769000000     4.575000000
C     1.638000000     1.566000000     3.944000000
C     2.207000000     0.261000000     4.017000000
H     1.685000000    -0.496000000     4.597000000
C     3.352000000    -0.048000000     3.284000000
O     3.759000000    -1.396000000     3.163000000
C     3.981000000     0.987000000     2.527000000
C     5.156000000     0.825000000     1.659000000
H     5.707000000     1.767000000     1.621000000
C     4.785000000     0.312000000     0.258000000
C     4.644000000     1.250000000    -0.826000000
H     4.672000000     2.314000000    -0.605000000
H     5.837000000     0.233000000     2.275000000
C     3.462000000     2.318000000     2.533000000
H     3.939000000     3.151000000     2.024000000
C     2.343000000     2.563000000     3.257000000
C     1.818000000     4.011000000     3.406000000
H     2.747000000     4.585000000     3.414000000
H     1.431000000     4.094000000     4.424000000
C     0.757000000     4.241000000     2.313000000
C     1.142000000     4.680000000     1.014000000
H     2.199000000     4.837000000     0.819000000
C    -0.626000000     3.929000000     2.538000000
C    -1.493000000     4.084000000     1.491000000
H    -2.500000000     3.775000000     1.762000000
C    -1.080000000     4.502000000     0.262000000
O    -2.003000000     4.502000000    -0.755000000
C    -1.958000000     3.440000000    -1.712000000
C    -3.341000000     2.932000000    -2.081000000
C    -3.501000000     2.024000000    -3.158000000
H    -2.601000000     1.629000000    -3.623000000
C    -4.482000000     3.290000000    -1.271000000
H    -4.417000000     4.007000000    -0.457000000
O    -1.216000000     3.757000000    -2.887000000
H    -1.476000000     2.611000000    -1.174000000
C     0.237000000     4.903000000    -0.008000000
C     0.702000000     5.352000000    -1.405000000
H     1.462000000     6.135000000    -1.359000000
H    -0.170000000     5.742000000    -1.934000000
C     1.088000000     4.047000000    -2.296000000
C     2.414000000     3.619000000    -2.389000000
H     3.197000000     4.183000000    -1.889000000
C     0.100000000     3.329000000    -2.986000000
C     0.427000000     2.165000000    -3.685000000
H    -0.332000000     1.625000000    -4.247000000
C     1.755000000     1.696000000    -3.793000000
O     1.972000000     0.470000000    -4.424000000
C     2.144000000    -0.714000000    -3.602000000
C     1.300000000    -1.906000000    -4.042000000
C     0.183000000    -1.636000000    -4.809000000
H    -0.181000000    -0.634000000    -5.022000000
C     1.632000000    -3.208000000    -3.682000000
H     2.362000000    -3.311000000    -2.884000000
O     3.560000000    -0.954000000    -3.531000000
H     1.791000000    -0.448000000    -2.595000000
C     2.741000000     2.477000000    -3.188000000
C     4.164000000     1.856000000    -3.203000000
H     4.922000000     2.623000000    -3.032000000
H     4.433000000     1.346000000    -4.131000000
C     4.323000000     0.814000000    -2.068000000
C     4.159000000    -0.534000000    -2.319000000
C     4.290000000    -1.430000000    -1.293000000
H     4.087000000    -2.487000000    -1.440000000
C     4.557000000    -1.073000000     0.012000000
O     4.567000000    -2.034000000     1.024000000
C     3.404000000    -1.980000000     1.893000000
H     2.693000000    -1.345000000     1.344000000
C     2.820000000    -3.366000000     2.064000000
C     1.788000000    -3.539000000     2.957000000
H     1.471000000    -2.714000000     3.591000000
C     3.216000000    -4.390000000     1.197000000
H     3.984000000    -4.311000000     0.432000000
C     2.549000000    -5.594000000     1.232000000
O     3.153000000    -6.602000000     0.507000000
C     1.480000000    -5.788000000     2.074000000
H     1.064000000    -6.791000000     2.130000000
C     1.085000000    -4.771000000     2.957000000
O    -0.011000000    -5.016000000     3.804000000
C    -0.212000000    -4.221000000     4.913000000
C    -1.379000000    -3.362000000     4.928000000
H    -2.040000000    -3.297000000     4.067000000
C     0.581000000    -4.319000000     6.005000000
H     1.428000000    -4.994000000     5.908000000
C     0.207000000    -3.569000000     7.192000000
H     0.859000000    -3.538000000     8.061000000
C    -0.903000000    -2.683000000     7.189000000
H    -1.178000000    -2.086000000     8.055000000
C    -1.678000000    -2.614000000     5.993000000
O    -2.848000000    -1.904000000     6.033000000
C    -2.911000000    -0.751000000     5.345000000
C    -4.131000000    -0.313000000     4.975000000
H    -5.044000000    -0.885000000     5.123000000
C    -4.292000000     0.875000000     4.144000000
O    -5.572000000     1.294000000     3.804000000
C    -5.780000000     2.397000000     2.914000000
C    -6.139000000     2.112000000     1.583000000
H    -6.445000000     1.117000000     1.270000000
C    -5.586000000     3.635000000     3.316000000
H    -5.265000000     3.835000000     4.336000000
C    -5.864000000     4.731000000     2.466000000
H    -5.657000000     5.702000000     2.907000000
C    -6.273000000     4.535000000     1.184000000
H    -6.436000000     5.358000000     0.493000000
C    -6.421000000     3.236000000     0.738000000
O    -6.694000000     2.935000000    -0.543000000
C    -5.679000000     2.579000000    -1.404000000
C    -5.823000000     1.736000000    -2.560000000
H    -6.784000000     1.261000000    -2.741000000
C    -4.761000000     1.541000000    -3.412000000
O    -4.965000000     0.587000000    -4.436000000
C    -4.063000000     0.252000000    -5.438000000
C    -3.334000000    -0.941000000    -5.323000000
H    -3.582000000    -1.539000000    -4.449000000
C    -3.790000000     1.104000000    -6.454000000
H    -4.436000000     1.978000000    -6.487000000
C    -2.701000000     0.899000000    -7.281000000
H    -2.464000000     1.572000000    -8.101000000
C    -1.987000000    -0.303000000    -7.214000000
H    -1.217000000    -0.484000000    -7.959000000
C    -2.307000000    -1.220000000    -6.174000000
O    -1.631000000    -2.442000000    -6.115000000
C    -0.608000000    -2.707000000    -5.227000000
C    -0.199000000    -4.002000000    -4.935000000
H    -0.721000000    -4.903000000    -5.246000000
C     0.857000000    -4.299000000    -4.067000000
O     1.080000000    -5.626000000    -3.673000000
C     2.174000000    -6.073000000    -2.980000000
C     3.359000000    -6.187000000    -3.683000000
H     3.497000000    -5.980000000    -4.741000000
C     4.455000000    -6.649000000    -2.960000000
H     5.446000000    -6.588000000    -3.403000000
C     4.350000000    -6.867000000    -1.590000000
H     5.258000000    -6.985000000    -1.004000000
C     3.138000000    -6.553000000    -0.879000000
C     2.011000000    -6.297000000    -1.605000000
H     1.076000000    -6.043000000    -1.113000000
C    -1.984000000    -1.348000000     1.716000000
H    -2.015000000    -2.027000000     2.564000000
C    -0.734000000    -0.934000000     1.274000000
H     0.106000000    -1.149000000     1.929000000
C    -0.571000000    -0.220000000     0.123000000
C     0.868000000     0.167000000    -0.243000000
H     0.891000000     0.924000000    -1.029000000
H     1.331000000     0.610000000     0.641000000
H     1.359000000    -0.777000000    -0.488000000
C    -1.695000000     0.089000000    -0.596000000
H    -1.693000000     0.680000000    -1.508000000
C    -2.968000000    -0.261000000    -0.192000000
H    -3.805000000     0.028000000    -0.822000000
C    -3.108000000    -1.059000000     0.927000000
C    -4.465000000    -1.599000000     1.283000000
O    -5.494000000    -1.282000000     0.643000000
O    -4.584000000    -2.469000000     2.117000000
O    -6.773000000    -1.684000000     3.241000000
H    -5.871000000    -1.942000000     3.051000000
H    -7.153000000    -1.492000000     2.384000000
O    -4.623000000    -4.134000000    -4.627000000
H    -4.045000000    -3.920000000    -3.895000000
H    -5.282000000    -4.717000000    -4.250000000
O    -3.902000000    -4.465000000     0.218000000
H    -4.770000000    -4.843000000     0.074000000
H    -3.963000000    -4.045000000     1.076000000
O    -6.182000000    -1.648000000    -2.052000000
H    -5.570000000    -1.024000000    -2.442000000
H    -5.972000000    -1.639000000    -1.119000000
O    -8.817000000    -6.130000000     3.740000000
H    -8.042000000    -6.623000000     4.010000000
H    -8.621000000    -5.225000000     3.985000000
O    -5.683000000    -3.050000000     6.642000000
H    -4.857000000    -2.597000000     6.815000000
H    -5.472000000    -3.679000000     5.953000000
O    -6.288000000    -5.373000000    -0.312000000
H    -6.883000000    -5.338000000     0.437000000
H    -6.572000000    -6.142000000    -0.807000000
O    -9.890000000    -3.338000000     0.269000000
H   -10.490000000    -3.717000000     0.911000000
H   -10.433000000    -2.736000000    -0.240000000
O    -3.490000000    -3.531000000    -2.290000000
H    -3.394000000    -4.208000000    -1.620000000
H    -3.836000000    -2.774000000    -1.817000000
O    -2.948000000    -6.192000000     3.813000000
H    -1.997000000    -6.195000000     3.708000000
H    -3.233000000    -7.026000000     3.440000000
O    -6.056000000     0.881000000     7.203000000
H    -5.545000000     0.690000000     6.417000000
H    -6.635000000     1.598000000     6.944000000
O    -6.253000000    -7.061000000     4.031000000
H    -6.160000000    -6.995000000     4.981000000
H    -5.681000000    -6.376000000     3.686000000
O    -8.232000000    -1.205000000     0.763000000
H    -8.609000000    -2.038000000     0.480000000
H    -7.295000000    -1.295000000     0.589000000
O    -9.613000000     0.959000000     0.552000000
H   -10.051000000     1.217000000    -0.259000000
H    -9.134000000     0.163000000     0.323000000
O    -8.111000000    -1.905000000    -4.245000000
H    -7.479000000    -2.027000000    -4.953000000
H    -7.575000000    -1.686000000    -3.482000000
O    -8.976000000    -3.352000000     4.024000000
H    -8.143000000    -3.036000000     3.673000000
H    -9.639000000    -2.965000000     3.452000000
O    -8.059000000    -0.091000000     4.816000000
H    -7.776000000    -0.492000000     3.995000000
H    -7.455000000    -0.438000000     5.473000000
O    -4.787000000    -4.300000000     4.120000000
H    -4.067000000    -4.895000000     3.910000000
H    -4.867000000    -3.739000000     3.350000000
O    -3.258000000    -7.121000000     0.070000000
H    -2.734000000    -7.190000000    -0.729000000
H    -3.363000000    -6.180000000     0.206000000
