218
-1446.65816
C    -2.800000000    -4.004000000     0.022000000
H    -2.824000000    -3.972000000    -1.064000000
C    -3.306000000    -3.000000000     0.761000000
C    -3.191000000    -3.056000000     2.196000000
H    -3.480000000    -2.161000000     2.740000000
C    -3.795000000    -1.696000000     0.150000000
O    -4.313000000    -1.966000000    -1.195000000
H    -2.927000000    -1.020000000     0.166000000
O    -4.799000000    -0.959000000     1.041000000
C    -4.544000000     0.392000000     1.145000000
C    -3.776000000     0.888000000     2.174000000
H    -3.577000000     0.246000000     3.028000000
C    -3.398000000     2.229000000     2.261000000
O    -2.728000000     2.535000000     3.438000000
C    -3.648000000     3.160000000     1.287000000
C    -3.059000000     4.567000000     1.424000000
H    -3.669000000     5.271000000     0.854000000
C    -1.575000000     4.598000000     0.959000000
C    -1.310000000     4.864000000    -0.382000000
H    -2.218000000     4.992000000    -0.966000000
H    -3.111000000     4.896000000     2.464000000
C    -4.209000000     2.644000000     0.115000000
H    -4.339000000     3.297000000    -0.744000000
C    -4.725000000     1.302000000     0.026000000
C    -5.404000000     0.798000000    -1.270000000
H    -5.933000000     1.651000000    -1.700000000
H    -6.279000000     0.167000000    -1.099000000
C    -4.336000000     0.245000000    -2.244000000
C    -3.808000000     1.103000000    -3.174000000
H    -4.049000000     2.160000000    -3.248000000
C    -3.989000000    -1.108000000    -2.197000000
C    -2.986000000    -1.586000000    -3.056000000
H    -2.581000000    -2.586000000    -2.927000000
C    -2.406000000    -0.674000000    -3.947000000
O    -1.402000000    -1.119000000    -4.775000000
C    -0.031000000    -0.965000000    -4.289000000
C     0.761000000    -2.232000000    -4.352000000
C     2.143000000    -2.145000000    -4.436000000
H     2.751000000    -1.245000000    -4.480000000
C     0.108000000    -3.473000000    -4.516000000
H    -0.971000000    -3.456000000    -4.385000000
O     0.616000000     0.138000000    -4.937000000
H     0.021000000    -0.679000000    -3.228000000
C    -2.791000000     0.687000000    -4.004000000
C    -1.998000000     1.585000000    -4.914000000
H    -2.635000000     2.440000000    -5.149000000
H    -1.875000000     1.068000000    -5.867000000
C    -0.659000000     2.100000000    -4.357000000
C    -0.696000000     3.323000000    -3.696000000
H    -1.579000000     3.939000000    -3.548000000
C     0.537000000     1.353000000    -4.426000000
C     1.667000000     1.787000000    -3.807000000
H     2.608000000     1.262000000    -3.956000000
C     1.631000000     3.071000000    -3.164000000
O     2.791000000     3.390000000    -2.445000000
C     2.747000000     3.248000000    -1.055000000
C     3.857000000     2.421000000    -0.494000000
C     4.545000000     1.508000000    -1.276000000
H     4.233000000     1.166000000    -2.260000000
C     4.373000000     2.730000000     0.777000000
H     3.895000000     3.486000000     1.395000000
O     2.398000000     4.496000000    -0.385000000
H     1.842000000     2.672000000    -0.810000000
C     0.432000000     3.787000000    -3.021000000
C     0.371000000     5.173000000    -2.342000000
H    -0.389000000     5.796000000    -2.818000000
H     1.380000000     5.590000000    -2.330000000
C    -0.019000000     4.894000000    -0.904000000
C     1.033000000     4.538000000    -0.061000000
C     0.755000000     4.132000000     1.225000000
H     1.559000000     3.776000000     1.863000000
C    -0.524000000     4.227000000     1.760000000
O    -0.736000000     3.825000000     3.101000000
C    -1.244000000     2.467000000     3.318000000
H    -1.010000000     1.833000000     2.450000000
C    -0.627000000     1.964000000     4.637000000
C    -1.269000000     1.056000000     5.462000000
H    -2.315000000     0.821000000     5.282000000
C     0.680000000     2.267000000     4.897000000
H     1.193000000     2.778000000     4.087000000
C     1.417000000     1.656000000     5.947000000
O     2.751000000     1.778000000     6.020000000
C     0.668000000     0.831000000     6.809000000
H     1.149000000     0.399000000     7.682000000
C    -0.603000000     0.428000000     6.535000000
O    -1.164000000    -0.585000000     7.193000000
C    -2.181000000    -1.480000000     6.702000000
C    -1.952000000    -2.190000000     5.499000000
H    -0.975000000    -2.122000000     5.029000000
C    -3.278000000    -1.784000000     7.511000000
H    -3.431000000    -1.286000000     8.465000000
C    -4.120000000    -2.863000000     7.103000000
H    -4.985000000    -3.182000000     7.679000000
C    -3.800000000    -3.617000000     5.983000000
H    -4.385000000    -4.476000000     5.664000000
C    -2.766000000    -3.245000000     5.146000000
O    -2.352000000    -4.127000000     4.160000000
C    -2.580000000    -4.145000000     2.786000000
C    -2.116000000    -5.168000000     1.938000000
H    -1.652000000    -6.034000000     2.402000000
C    -2.183000000    -5.079000000     0.545000000
O    -1.615000000    -6.098000000    -0.178000000
C    -1.701000000    -6.292000000    -1.551000000
C    -0.694000000    -5.830000000    -2.444000000
H     0.172000000    -5.284000000    -2.078000000
C    -2.821000000    -6.911000000    -2.031000000
H    -3.562000000    -7.268000000    -1.321000000
C    -2.924000000    -7.221000000    -3.362000000
H    -3.719000000    -7.883000000    -3.694000000
C    -1.974000000    -6.797000000    -4.324000000
H    -2.063000000    -7.077000000    -5.370000000
C    -0.833000000    -6.078000000    -3.877000000
O     0.154000000    -5.760000000    -4.852000000
C     0.840000000    -4.616000000    -4.712000000
C     2.230000000    -4.612000000    -4.685000000
H     2.800000000    -5.527000000    -4.823000000
C     2.838000000    -3.365000000    -4.516000000
O     4.191000000    -3.325000000    -4.562000000
C     5.083000000    -2.322000000    -4.202000000
C     5.119000000    -1.798000000    -2.906000000
H     4.501000000    -2.249000000    -2.134000000
C     5.901000000    -1.769000000    -5.124000000
H     5.857000000    -2.100000000    -6.159000000
C     6.675000000    -0.681000000    -4.892000000
H     7.270000000    -0.235000000    -5.685000000
C     6.825000000    -0.192000000    -3.586000000
H     7.425000000     0.683000000    -3.352000000
C     6.007000000    -0.754000000    -2.607000000
O     6.107000000    -0.314000000    -1.339000000
C     5.627000000     0.866000000    -0.760000000
C     6.047000000     0.999000000     0.603000000
H     6.893000000     0.422000000     0.967000000
C     5.399000000     1.971000000     1.379000000
O     5.975000000     2.334000000     2.620000000
C     5.178000000     2.870000000     3.586000000
C     5.417000000     4.134000000     4.047000000
H     6.135000000     4.746000000     3.507000000
C     4.738000000     4.657000000     5.174000000
H     5.002000000     5.604000000     5.639000000
C     3.815000000     3.843000000     5.851000000
H     3.464000000     4.086000000     6.851000000
C     3.523000000     2.616000000     5.314000000
C     4.199000000     2.059000000     4.198000000
H     3.922000000     1.070000000     3.841000000
C     0.723000000    -2.509000000    -0.712000000
H     0.439000000    -3.446000000    -1.185000000
C    -0.015000000    -1.343000000    -0.856000000
H    -0.975000000    -1.362000000    -1.365000000
C     0.491000000    -0.200000000    -0.332000000
C    -0.297000000     1.066000000    -0.452000000
H     0.016000000     1.433000000    -1.432000000
H    -1.371000000     0.939000000    -0.600000000
H    -0.012000000     1.739000000     0.359000000
C     1.701000000    -0.133000000     0.285000000
H     2.018000000     0.827000000     0.684000000
C     2.500000000    -1.257000000     0.404000000
H     3.531000000    -1.274000000     0.747000000
C     2.059000000    -2.449000000    -0.194000000
C     2.867000000    -3.753000000    -0.107000000
O     4.026000000    -3.691000000     0.118000000
O     2.269000000    -4.807000000    -0.042000000
O     3.089000000    -9.007000000     3.097000000
H     3.636000000    -9.234000000     3.849000000
H     3.301000000    -8.091000000     2.915000000
O     4.214000000    -2.850000000     5.234000000
H     3.724000000    -3.239000000     4.509000000
H     4.868000000    -3.511000000     5.463000000
O     7.848000000    -4.914000000     0.643000000
H     7.743000000    -5.763000000     0.214000000
H     8.770000000    -4.692000000     0.512000000
O     6.518000000    -6.626000000     2.530000000
H     7.143000000    -5.904000000     2.455000000
H     5.835000000    -6.418000000     1.893000000
O     0.923000000    -2.973000000     3.526000000
H     1.260000000    -3.830000000     3.268000000
H     1.237000000    -2.377000000     2.846000000
O    -0.289000000    -8.057000000     1.622000000
H    -0.728000000    -8.276000000     2.443000000
H    -0.928000000    -7.532000000     1.141000000
O     1.543000000    -6.032000000     2.163000000
H     1.622000000    -5.664000000     1.283000000
H     0.949000000    -6.775000000     2.060000000
O     1.580000000    -8.184000000    -0.517000000
H     0.972000000    -8.171000000    -1.257000000
H     1.020000000    -8.306000000     0.250000000
O     3.458000000    -4.372000000     3.251000000
H     2.979000000    -5.115000000     2.884000000
H     4.309000000    -4.396000000     2.814000000
O     1.218000000    -6.566000000     4.907000000
H     2.099000000    -6.588000000     5.280000000
H     1.360000000    -6.489000000     3.963000000
O     3.532000000    -6.400000000    -2.149000000
H     2.859000000    -7.075000000    -2.239000000
H     3.413000000    -6.059000000    -1.263000000
O     4.395000000    -6.193000000     1.077000000
H     3.778000000    -6.725000000     0.575000000
H     4.263000000    -5.302000000     0.753000000
O     8.785000000    -0.821000000    -0.199000000
H     7.908000000    -1.196000000    -0.280000000
H     8.910000000    -0.708000000     0.744000000
O     1.318000000    -3.861000000     6.288000000
H     0.916000000    -4.728000000     6.340000000
H     1.305000000    -3.646000000     5.356000000
O     6.502000000    -7.209000000    -1.398000000
H     6.309000000    -8.146000000    -1.425000000
H     5.682000000    -6.788000000    -1.654000000
O     4.663000000    -7.481000000    -4.479000000
H     3.866000000    -7.851000000    -4.860000000
H     4.351000000    -6.806000000    -3.877000000
O     7.486000000    -1.901000000     3.646000000
H     7.034000000    -1.430000000     4.345000000
H     7.100000000    -1.561000000     2.839000000
O     6.420000000    -2.504000000     0.810000000
H     5.592000000    -2.786000000     0.423000000
H     6.921000000    -3.312000000     0.921000000
O     8.589000000    -4.755000000    -2.700000000
H     9.125000000    -4.054000000    -2.330000000
H     7.706000000    -4.387000000    -2.740000000
