218
-1452.96844
C    -1.995000000     2.833000000     3.926000000
H    -2.211000000     3.438000000     3.049000000
C    -0.659000000     2.678000000     4.235000000
C    -0.354000000     1.872000000     5.367000000
H     0.684000000     1.582000000     5.503000000
C     0.434000000     3.061000000     3.280000000
O     0.142000000     4.296000000     2.569000000
H     0.410000000     2.217000000     2.574000000
O     1.761000000     3.049000000     3.865000000
C     2.746000000     2.458000000     3.117000000
C     3.123000000     1.163000000     3.454000000
H     2.602000000     0.648000000     4.258000000
C     4.042000000     0.494000000     2.691000000
O     4.104000000    -0.859000000     2.767000000
C     4.587000000     1.074000000     1.574000000
C     5.580000000     0.284000000     0.691000000
H     6.290000000     1.003000000     0.276000000
C     4.887000000    -0.438000000    -0.535000000
C     4.896000000     0.210000000    -1.774000000
H     5.478000000     1.112000000    -1.942000000
H     6.185000000    -0.353000000     1.340000000
C     4.355000000     2.411000000     1.291000000
H     4.774000000     2.958000000     0.450000000
C     3.350000000     3.047000000     2.004000000
C     2.982000000     4.443000000     1.643000000
H     3.752000000     5.041000000     1.150000000
H     2.701000000     4.961000000     2.562000000
C     1.745000000     4.446000000     0.711000000
C     1.951000000     4.605000000    -0.638000000
H     2.968000000     4.719000000    -1.005000000
C     0.481000000     4.386000000     1.238000000
C    -0.626000000     4.271000000     0.340000000
H    -1.617000000     4.220000000     0.784000000
C    -0.412000000     4.259000000    -1.055000000
O    -1.441000000     4.124000000    -1.990000000
C    -1.553000000     2.805000000    -2.581000000
C    -3.000000000     2.372000000    -2.570000000
C    -3.648000000     1.880000000    -3.676000000
H    -3.142000000     1.945000000    -4.636000000
C    -3.597000000     2.093000000    -1.326000000
H    -2.993000000     2.195000000    -0.428000000
O    -1.068000000     2.952000000    -3.897000000
H    -1.112000000     1.965000000    -2.025000000
C     0.876000000     4.536000000    -1.558000000
C     1.183000000     4.608000000    -3.059000000
H     2.159000000     5.098000000    -3.045000000
H     0.429000000     5.204000000    -3.578000000
C     1.379000000     3.185000000    -3.615000000
C     2.629000000     2.538000000    -3.575000000
H     3.452000000     2.970000000    -3.011000000
C     0.242000000     2.545000000    -4.094000000
C     0.300000000     1.238000000    -4.588000000
H    -0.608000000     0.762000000    -4.947000000
C     1.579000000     0.650000000    -4.705000000
O     1.512000000    -0.671000000    -5.079000000
C     1.505000000    -1.558000000    -3.946000000
C     0.264000000    -2.504000000    -3.963000000
C    -0.737000000    -2.500000000    -4.980000000
H    -0.548000000    -1.848000000    -5.829000000
C     0.099000000    -3.292000000    -2.798000000
H     0.733000000    -3.118000000    -1.932000000
O     2.729000000    -2.214000000    -3.677000000
H     1.296000000    -0.972000000    -3.038000000
C     2.696000000     1.239000000    -4.081000000
C     3.988000000     0.509000000    -4.074000000
H     4.793000000     1.242000000    -4.154000000
H     4.134000000    -0.122000000    -4.953000000
C     4.119000000    -0.264000000    -2.795000000
C     3.448000000    -1.492000000    -2.679000000
C     3.565000000    -2.250000000    -1.487000000
H     3.122000000    -3.243000000    -1.474000000
C     4.164000000    -1.621000000    -0.354000000
O     4.145000000    -2.254000000     0.892000000
C     3.271000000    -1.714000000     1.919000000
H     2.502000000    -1.054000000     1.490000000
C     2.550000000    -2.782000000     2.761000000
C     2.188000000    -2.590000000     4.116000000
H     2.475000000    -1.642000000     4.563000000
C     2.350000000    -3.998000000     2.196000000
H     2.784000000    -4.283000000     1.240000000
C     1.674000000    -5.009000000     2.868000000
O     1.389000000    -6.225000000     2.246000000
C     1.283000000    -4.821000000     4.180000000
H     0.715000000    -5.603000000     4.677000000
C     1.571000000    -3.600000000     4.851000000
O     1.254000000    -3.436000000     6.176000000
C     1.244000000    -2.279000000     6.856000000
C     0.164000000    -1.491000000     6.600000000
H    -0.477000000    -1.774000000     5.769000000
C     1.946000000    -2.089000000     8.003000000
H     2.637000000    -2.873000000     8.303000000
C     1.576000000    -1.072000000     8.876000000
H     2.052000000    -0.992000000     9.850000000
C     0.555000000    -0.200000000     8.547000000
H     0.371000000     0.698000000     9.132000000
C    -0.124000000    -0.403000000     7.382000000
O    -1.224000000     0.443000000     7.106000000
C    -1.398000000     1.287000000     6.056000000
C    -2.760000000     1.493000000     5.760000000
H    -3.610000000     0.978000000     6.201000000
C    -3.022000000     2.249000000     4.628000000
O    -4.316000000     2.539000000     4.386000000
C    -5.000000000     2.670000000     3.150000000
C    -4.824000000     1.731000000     2.081000000
H    -4.087000000     0.933000000     2.127000000
C    -5.904000000     3.713000000     2.986000000
H    -6.161000000     4.364000000     3.819000000
C    -6.551000000     3.862000000     1.755000000
H    -7.133000000     4.762000000     1.572000000
C    -6.363000000     2.931000000     0.733000000
H    -6.816000000     3.096000000    -0.242000000
C    -5.454000000     1.927000000     0.882000000
O    -5.244000000     1.000000000     0.002000000
C    -4.762000000     1.369000000    -1.253000000
C    -5.438000000     0.997000000    -2.379000000
H    -6.353000000     0.410000000    -2.386000000
C    -4.826000000     1.234000000    -3.617000000
O    -5.379000000     0.757000000    -4.836000000
C    -4.676000000    -0.061000000    -5.818000000
C    -3.969000000    -1.185000000    -5.464000000
H    -3.948000000    -1.262000000    -4.380000000
C    -4.850000000     0.125000000    -7.145000000
H    -5.460000000     0.935000000    -7.537000000
C    -4.226000000    -0.776000000    -8.080000000
H    -4.285000000    -0.623000000    -9.155000000
C    -3.638000000    -1.949000000    -7.680000000
H    -3.193000000    -2.716000000    -8.309000000
C    -3.467000000    -2.158000000    -6.298000000
O    -2.816000000    -3.309000000    -5.852000000
C    -1.896000000    -3.292000000    -4.788000000
C    -2.022000000    -4.142000000    -3.704000000
H    -2.910000000    -4.757000000    -3.584000000
C    -1.090000000    -4.063000000    -2.651000000
O    -1.210000000    -4.826000000    -1.541000000
C    -0.241000000    -5.612000000    -0.986000000
C     0.354000000    -6.603000000    -1.808000000
H    -0.132000000    -6.693000000    -2.776000000
C     1.445000000    -7.289000000    -1.241000000
H     1.919000000    -8.043000000    -1.865000000
C     1.828000000    -7.126000000     0.106000000
H     2.545000000    -7.736000000     0.649000000
C     1.035000000    -6.297000000     0.897000000
C     0.000000000    -5.501000000     0.383000000
H    -0.651000000    -4.890000000     1.004000000
C    -1.349000000    -0.878000000     2.254000000
H    -1.352000000    -1.240000000     3.280000000
C    -0.189000000    -0.262000000     1.701000000
H     0.598000000    -0.030000000     2.414000000
C    -0.046000000    -0.066000000     0.371000000
C     1.216000000     0.536000000    -0.201000000
H     1.924000000    -0.215000000    -0.556000000
H     0.924000000     1.114000000    -1.080000000
H     1.745000000     1.183000000     0.503000000
C    -1.033000000    -0.362000000    -0.560000000
H    -0.879000000    -0.227000000    -1.627000000
C    -2.262000000    -0.845000000    -0.027000000
H    -2.960000000    -1.219000000    -0.772000000
C    -2.368000000    -1.167000000     1.317000000
C    -3.590000000    -1.975000000     1.775000000
O    -4.206000000    -2.625000000     0.946000000
O    -3.890000000    -1.874000000     2.951000000
O    -6.380000000    -1.438000000     2.710000000
H    -6.531000000    -1.438000000     1.765000000
H    -5.446000000    -1.625000000     2.804000000
O    -6.144000000     0.379000000     5.902000000
H    -6.280000000    -0.521000000     5.605000000
H    -6.468000000     0.920000000     5.182000000
O    -5.851000000    -4.392000000    -3.300000000
H    -5.055000000    -4.225000000    -2.796000000
H    -5.702000000    -5.244000000    -3.709000000
O    -3.307000000    -2.577000000     5.550000000
H    -3.604000000    -2.528000000     4.641000000
H    -3.581000000    -1.746000000     5.937000000
O    -7.606000000     0.890000000     3.106000000
H    -6.889000000     1.358000000     2.679000000
H    -7.393000000    -0.036000000     2.984000000
O    -4.674000000    -6.891000000    -1.104000000
H    -5.614000000    -6.873000000    -0.927000000
H    -4.436000000    -5.973000000    -1.233000000
O    -8.807000000    -5.278000000     3.752000000
H    -8.281000000    -5.816000000     3.161000000
H    -8.184000000    -4.960000000     4.406000000
O    -7.888000000    -4.402000000     1.121000000
H    -7.887000000    -5.187000000     0.572000000
H    -8.605000000    -3.870000000     0.777000000
O    -3.876000000    -4.098000000    -1.088000000
H    -2.981000000    -3.861000000    -1.331000000
H    -4.066000000    -3.560000000    -0.320000000
O    -1.814000000    -7.974000000     0.767000000
H    -2.276000000    -7.401000000     1.379000000
H    -1.386000000    -7.375000000     0.155000000
O    -2.808000000    -6.632000000     2.757000000
H    -3.723000000    -6.405000000     2.595000000
H    -2.573000000    -6.135000000     3.541000000
O    -6.623000000    -2.255000000     0.070000000
H    -5.682000000    -2.212000000     0.240000000
H    -6.880000000    -3.128000000     0.369000000
O    -9.203000000     1.606000000     0.836000000
H    -9.554000000     2.480000000     1.008000000
H    -8.616000000     1.434000000     1.572000000
O    -5.329000000    -4.663000000     2.390000000
H    -6.108000000    -4.596000000     1.838000000
H    -4.839000000    -3.860000000     2.212000000
O    -5.938000000    -5.188000000     4.788000000
H    -5.820000000    -4.998000000     3.857000000
H    -6.219000000    -6.103000000     4.812000000
O    -7.444000000    -2.198000000    -2.800000000
H    -7.088000000    -1.913000000    -1.958000000
H    -7.079000000    -3.073000000    -2.931000000
O    -6.876000000    -2.258000000     5.559000000
H    -6.635000000    -2.841000000     4.839000000
H    -7.582000000    -2.719000000     6.013000000
O    -2.678000000    -5.093000000     4.843000000
H    -3.595000000    -4.849000000     4.719000000
H    -2.329000000    -4.425000000     5.433000000
O    -4.979000000    -5.326000000     7.481000000
H    -5.235000000    -4.641000000     6.863000000
H    -4.975000000    -6.129000000     6.960000000
