218
-1470.38473
C    -2.153000000     2.882000000     2.648000000
H    -2.380000000     2.895000000     1.585000000
C    -0.863000000     3.326000000     3.070000000
C    -0.503000000     3.248000000     4.422000000
H     0.529000000     3.415000000     4.718000000
C     0.160000000     3.735000000     2.016000000
O    -0.250000000     4.871000000     1.209000000
H     0.237000000     2.800000000     1.441000000
O     1.436000000     3.970000000     2.543000000
C     2.569000000     3.392000000     1.995000000
C     3.105000000     2.300000000     2.619000000
H     2.667000000     1.967000000     3.556000000
C     4.165000000     1.531000000     2.086000000
O     4.556000000     0.367000000     2.646000000
C     4.647000000     1.865000000     0.858000000
C     5.679000000     0.917000000     0.223000000
H     6.225000000     1.631000000    -0.397000000
C     5.023000000    -0.092000000    -0.607000000
C     4.713000000     0.235000000    -1.991000000
H     5.134000000     1.107000000    -2.484000000
H     6.466000000     0.525000000     0.872000000
C     4.066000000     2.965000000     0.190000000
H     4.331000000     3.237000000    -0.828000000
C     3.106000000     3.774000000     0.769000000
C     2.462000000     4.970000000    -0.006000000
H     3.203000000     5.394000000    -0.687000000
H     2.242000000     5.705000000     0.771000000
C     1.187000000     4.601000000    -0.740000000
C     1.314000000     4.302000000    -2.085000000
H     2.282000000     4.292000000    -2.578000000
C    -0.048000000     4.529000000    -0.088000000
C    -1.167000000     4.219000000    -0.801000000
H    -2.095000000     4.122000000    -0.244000000
C    -1.078000000     3.942000000    -2.145000000
O    -2.116000000     3.332000000    -2.785000000
C    -2.197000000     1.873000000    -3.049000000
C    -3.583000000     1.375000000    -2.737000000
C    -4.073000000     0.226000000    -3.338000000
H    -3.487000000    -0.331000000    -4.065000000
C    -4.425000000     2.038000000    -1.862000000
H    -4.079000000     2.954000000    -1.390000000
O    -1.852000000     1.539000000    -4.376000000
H    -1.501000000     1.346000000    -2.381000000
C     0.170000000     3.976000000    -2.834000000
C     0.265000000     3.511000000    -4.280000000
H     1.085000000     3.947000000    -4.854000000
H    -0.596000000     3.803000000    -4.885000000
C     0.500000000     2.019000000    -4.405000000
C     1.794000000     1.477000000    -4.354000000
H     2.656000000     2.106000000    -4.144000000
C    -0.573000000     1.125000000    -4.501000000
C    -0.266000000    -0.175000000    -4.600000000
H    -1.069000000    -0.907000000    -4.596000000
C     1.021000000    -0.722000000    -4.591000000
O     1.100000000    -2.044000000    -4.341000000
C     1.317000000    -2.477000000    -2.965000000
C     0.442000000    -3.757000000    -2.842000000
C    -0.788000000    -3.918000000    -3.475000000
H    -1.042000000    -3.209000000    -4.258000000
C     0.755000000    -4.667000000    -1.815000000
H     1.558000000    -4.312000000    -1.174000000
O     2.744000000    -2.734000000    -2.737000000
H     1.001000000    -1.620000000    -2.352000000
C     2.057000000     0.120000000    -4.381000000
C     3.519000000    -0.392000000    -4.150000000
H     4.143000000     0.433000000    -4.499000000
H     3.744000000    -1.288000000    -4.732000000
C     3.888000000    -0.642000000    -2.696000000
C     3.495000000    -1.821000000    -2.033000000
C     3.981000000    -2.168000000    -0.805000000
H     3.740000000    -3.122000000    -0.343000000
C     4.622000000    -1.272000000    -0.033000000
O     4.873000000    -1.445000000     1.315000000
C     3.884000000    -0.788000000     2.097000000
H     3.079000000    -0.418000000     1.445000000
C     3.256000000    -1.718000000     3.128000000
C     2.478000000    -1.217000000     4.151000000
H     2.275000000    -0.162000000     4.317000000
C     3.334000000    -3.103000000     2.983000000
H     4.036000000    -3.505000000     2.256000000
C     2.533000000    -3.964000000     3.759000000
O     2.570000000    -5.321000000     3.556000000
C     1.757000000    -3.445000000     4.787000000
H     1.089000000    -4.154000000     5.270000000
C     1.696000000    -2.074000000     4.930000000
O     0.909000000    -1.622000000     6.013000000
C     0.920000000    -0.374000000     6.606000000
C    -0.158000000     0.479000000     6.302000000
H    -0.877000000     0.345000000     5.498000000
C     1.765000000    -0.196000000     7.704000000
H     2.385000000    -1.009000000     8.073000000
C     1.591000000     0.936000000     8.466000000
H     2.092000000     1.061000000     9.423000000
C     0.690000000     1.926000000     8.105000000
H     0.660000000     2.866000000     8.651000000
C    -0.165000000     1.723000000     7.054000000
O    -1.048000000     2.741000000     6.699000000
C    -1.441000000     2.854000000     5.403000000
C    -2.730000000     2.488000000     4.968000000
H    -3.547000000     2.274000000     5.652000000
C    -3.025000000     2.451000000     3.621000000
O    -4.256000000     2.113000000     3.206000000
C    -5.116000000     2.846000000     2.397000000
C    -5.456000000     2.197000000     1.210000000
H    -5.056000000     1.218000000     0.962000000
C    -5.679000000     4.126000000     2.688000000
H    -5.485000000     4.726000000     3.573000000
C    -6.638000000     4.699000000     1.868000000
H    -7.184000000     5.605000000     2.116000000
C    -6.824000000     4.125000000     0.655000000
H    -7.632000000     4.529000000     0.050000000
C    -6.163000000     2.982000000     0.248000000
O    -6.479000000     2.528000000    -0.977000000
C    -5.738000000     1.690000000    -1.730000000
C    -6.290000000     0.592000000    -2.310000000
H    -7.330000000     0.359000000    -2.093000000
C    -5.416000000    -0.220000000    -3.090000000
O    -5.866000000    -1.409000000    -3.568000000
C    -5.068000000    -2.237000000    -4.305000000
C    -4.296000000    -3.180000000    -3.644000000
H    -4.293000000    -3.256000000    -2.559000000
C    -4.984000000    -2.112000000    -5.674000000
H    -5.442000000    -1.270000000    -6.186000000
C    -4.099000000    -2.922000000    -6.386000000
H    -3.977000000    -2.790000000    -7.458000000
C    -3.433000000    -3.956000000    -5.740000000
H    -2.762000000    -4.556000000    -6.349000000
C    -3.579000000    -4.111000000    -4.396000000
O    -2.876000000    -5.171000000    -3.859000000
C    -1.613000000    -5.026000000    -3.226000000
C    -1.319000000    -5.908000000    -2.223000000
H    -2.000000000    -6.708000000    -1.943000000
C    -0.104000000    -5.740000000    -1.487000000
O     0.238000000    -6.719000000    -0.480000000
C     1.392000000    -6.550000000     0.203000000
C     2.638000000    -6.767000000    -0.453000000
H     2.755000000    -7.278000000    -1.405000000
C     3.794000000    -6.518000000     0.230000000
H     4.803000000    -6.642000000    -0.155000000
C     3.756000000    -6.044000000     1.519000000
H     4.702000000    -5.796000000     1.995000000
C     2.592000000    -5.731000000     2.168000000
C     1.427000000    -6.032000000     1.495000000
H     0.499000000    -5.867000000     2.037000000
C    -1.854000000    -0.231000000     2.025000000
H    -2.054000000    -0.080000000     3.083000000
C    -0.666000000     0.263000000     1.483000000
H    -0.051000000     0.835000000     2.173000000
C    -0.378000000     0.071000000     0.158000000
C     0.832000000     0.668000000    -0.438000000
H     1.107000000     1.638000000    -0.019000000
H     1.702000000     0.009000000    -0.398000000
H     0.685000000     0.820000000    -1.509000000
C    -1.323000000    -0.649000000    -0.584000000
H    -1.177000000    -0.867000000    -1.639000000
C    -2.496000000    -1.241000000    -0.100000000
H    -3.142000000    -1.797000000    -0.775000000
C    -2.710000000    -1.018000000     1.284000000
C    -3.934000000    -1.569000000     1.938000000
O    -4.661000000    -2.291000000     1.286000000
O    -4.289000000    -1.220000000     3.073000000
O    -7.372000000    -4.618000000    -2.574000000
H    -8.254000000    -4.908000000    -2.343000000
H    -7.097000000    -4.075000000    -1.836000000
O    -8.904000000    -1.383000000    -0.846000000
H    -9.464000000    -1.943000000    -0.309000000
H    -9.352000000    -1.334000000    -1.690000000
O    -5.241000000    -4.857000000     2.219000000
H    -5.573000000    -5.278000000     1.427000000
H    -5.042000000    -3.960000000     1.948000000
O    -6.250000000    -2.891000000    -0.692000000
H    -5.692000000    -2.472000000    -0.036000000
H    -7.063000000    -2.387000000    -0.672000000
O    -7.593000000    -1.812000000     2.711000000
H    -7.764000000    -2.570000000     3.269000000
H    -6.639000000    -1.740000000     2.690000000
O    -8.792000000     2.717000000     2.864000000
H    -9.301000000     3.233000000     2.238000000
H    -8.539000000     1.933000000     2.377000000
O    -8.299000000     0.477000000     1.221000000
H    -7.767000000    -0.009000000     1.851000000
H    -8.529000000    -0.168000000     0.553000000
O    -4.180000000    -3.620000000     4.392000000
H    -4.721000000    -4.097000000     3.762000000
H    -4.201000000    -2.713000000     4.087000000
O    -4.989000000    -5.479000000    -0.946000000
H    -5.520000000    -4.692000000    -1.070000000
H    -5.397000000    -6.135000000    -1.510000000
O    -1.509000000    -4.961000000     4.223000000
H    -2.326000000    -4.537000000     4.485000000
H    -1.089000000    -4.330000000     3.639000000
O    -2.771000000    -7.165000000     0.703000000
H    -2.113000000    -7.610000000     1.238000000
H    -2.726000000    -6.250000000     0.981000000
O    -5.756000000     1.927000000     6.828000000
H    -5.464000000     1.229000000     6.241000000
H    -5.787000000     2.708000000     6.276000000
O    -4.421000000    -0.433000000     5.730000000
H    -4.366000000    -0.452000000     4.774000000
H    -4.002000000    -1.248000000     6.010000000
O    -2.847000000    -4.334000000     0.364000000
H    -3.385000000    -4.920000000    -0.169000000
H    -3.415000000    -3.584000000     0.543000000
O    -8.135000000    -3.911000000     4.579000000
H    -7.835000000    -4.716000000     4.157000000
H    -7.819000000    -3.979000000     5.479000000
O    -3.126000000    -2.827000000     6.676000000
H    -3.719000000    -2.932000000     7.419000000
H    -3.614000000    -3.174000000     5.929000000
O    -0.922000000    -3.333000000     2.107000000
H    -0.718000000    -2.446000000     1.811000000
H    -1.493000000    -3.688000000     1.426000000
O    -7.181000000    -6.285000000     3.538000000
H    -6.344000000    -5.873000000     3.325000000
H    -6.952000000    -7.181000000     3.785000000
O    -9.487000000     0.117000000     4.996000000
H    -9.897000000     0.482000000     4.212000000
H    -9.230000000    -0.769000000     4.741000000
