218
-1478.36378
C    -2.007000000     3.926000000     2.910000000
H    -2.333000000     4.402000000     1.988000000
C    -0.634000000     3.728000000     3.141000000
C    -0.275000000     3.080000000     4.335000000
H     0.773000000     2.800000000     4.405000000
C     0.455000000     3.887000000     2.061000000
O     0.120000000     4.881000000     1.113000000
H     0.453000000     2.881000000     1.616000000
O     1.800000000     4.051000000     2.663000000
C     2.758000000     3.311000000     2.041000000
C     3.137000000     2.177000000     2.829000000
H     2.707000000     1.930000000     3.796000000
C     3.954000000     1.236000000     2.118000000
O     4.185000000     0.018000000     2.681000000
C     4.512000000     1.492000000     0.832000000
C     5.392000000     0.478000000     0.120000000
H     5.966000000     1.079000000    -0.588000000
C     4.649000000    -0.553000000    -0.732000000
C     4.418000000    -0.408000000    -2.092000000
H     4.905000000     0.369000000    -2.676000000
H     6.159000000    -0.007000000     0.729000000
C     4.147000000     2.647000000     0.201000000
H     4.577000000     2.871000000    -0.772000000
C     3.314000000     3.569000000     0.799000000
C     2.925000000     4.814000000     0.068000000
H     3.755000000     4.994000000    -0.619000000
H     2.806000000     5.699000000     0.697000000
C     1.613000000     4.511000000    -0.744000000
C     1.767000000     4.128000000    -2.124000000
H     2.744000000     4.239000000    -2.588000000
C     0.303000000     4.556000000    -0.225000000
C    -0.821000000     4.207000000    -0.939000000
H    -1.807000000     4.193000000    -0.483000000
C    -0.631000000     3.744000000    -2.240000000
O    -1.728000000     3.328000000    -2.921000000
C    -1.958000000     1.951000000    -2.950000000
C    -3.352000000     1.496000000    -2.428000000
C    -4.023000000     0.565000000    -3.202000000
H    -3.531000000     0.143000000    -4.076000000
C    -4.118000000     2.161000000    -1.481000000
H    -3.709000000     3.065000000    -1.038000000
O    -1.686000000     1.641000000    -4.368000000
H    -1.153000000     1.440000000    -2.403000000
C     0.653000000     3.747000000    -2.864000000
C     0.801000000     3.295000000    -4.283000000
H     1.733000000     3.717000000    -4.664000000
H    -0.051000000     3.679000000    -4.849000000
C     0.830000000     1.797000000    -4.513000000
C     2.027000000     1.122000000    -4.461000000
H     2.935000000     1.692000000    -4.280000000
C    -0.419000000     1.103000000    -4.683000000
C    -0.328000000    -0.315000000    -4.644000000
H    -1.239000000    -0.905000000    -4.588000000
C     0.890000000    -0.979000000    -4.598000000
O     0.918000000    -2.378000000    -4.522000000
C     0.986000000    -2.940000000    -3.168000000
C     0.051000000    -4.125000000    -2.906000000
C    -1.192000000    -4.001000000    -3.464000000
H    -1.423000000    -3.223000000    -4.188000000
C     0.412000000    -5.152000000    -2.014000000
H     1.406000000    -5.118000000    -1.575000000
O     2.294000000    -3.274000000    -2.802000000
H     0.727000000    -2.132000000    -2.467000000
C     2.075000000    -0.265000000    -4.467000000
C     3.372000000    -0.943000000    -4.266000000
H     4.208000000    -0.301000000    -4.549000000
H     3.516000000    -1.796000000    -4.932000000
C     3.656000000    -1.293000000    -2.814000000
C     3.115000000    -2.423000000    -2.128000000
C     3.444000000    -2.609000000    -0.820000000
H     3.024000000    -3.446000000    -0.267000000
C     4.223000000    -1.688000000    -0.127000000
O     4.362000000    -1.939000000     1.207000000
C     3.548000000    -1.199000000     2.114000000
H     2.646000000    -0.920000000     1.550000000
C     3.004000000    -2.169000000     3.142000000
C     2.932000000    -1.665000000     4.454000000
H     3.405000000    -0.720000000     4.710000000
C     2.454000000    -3.392000000     2.833000000
H     2.515000000    -3.893000000     1.871000000
C     1.914000000    -4.160000000     3.830000000
O     1.330000000    -5.351000000     3.580000000
C     1.724000000    -3.647000000     5.120000000
H     1.149000000    -4.127000000     5.907000000
C     2.151000000    -2.349000000     5.356000000
O     2.057000000    -1.857000000     6.620000000
C     1.775000000    -0.512000000     6.824000000
C     0.535000000    -0.052000000     6.456000000
H    -0.296000000    -0.692000000     6.171000000
C     2.713000000     0.342000000     7.338000000
H     3.659000000    -0.017000000     7.736000000
C     2.446000000     1.671000000     7.564000000
H     3.176000000     2.316000000     8.048000000
C     1.258000000     2.161000000     7.171000000
H     1.144000000     3.237000000     7.266000000
C     0.268000000     1.278000000     6.632000000
O    -0.955000000     1.848000000     6.346000000
C    -1.177000000     2.725000000     5.289000000
C    -2.544000000     2.955000000     5.063000000
H    -3.349000000     2.573000000     5.685000000
C    -2.939000000     3.577000000     3.849000000
O    -4.337000000     3.683000000     3.620000000
C    -5.005000000     4.191000000     2.511000000
C    -5.381000000     3.290000000     1.455000000
H    -5.082000000     2.258000000     1.623000000
C    -5.371000000     5.529000000     2.475000000
H    -5.038000000     6.196000000     3.266000000
C    -6.031000000     6.031000000     1.328000000
H    -6.283000000     7.078000000     1.182000000
C    -6.372000000     5.182000000     0.260000000
H    -6.921000000     5.526000000    -0.614000000
C    -6.049000000     3.798000000     0.382000000
O    -6.334000000     2.914000000    -0.716000000
C    -5.514000000     2.048000000    -1.389000000
C    -6.073000000     0.904000000    -1.989000000
H    -7.131000000     0.727000000    -1.817000000
C    -5.342000000     0.218000000    -2.900000000
O    -5.965000000    -0.762000000    -3.714000000
C    -5.263000000    -1.764000000    -4.400000000
C    -4.743000000    -2.815000000    -3.616000000
H    -4.717000000    -2.803000000    -2.530000000
C    -5.046000000    -1.699000000    -5.754000000
H    -5.444000000    -0.929000000    -6.410000000
C    -4.379000000    -2.716000000    -6.418000000
H    -4.314000000    -2.547000000    -7.490000000
C    -3.868000000    -3.728000000    -5.645000000
H    -3.436000000    -4.611000000    -6.110000000
C    -4.028000000    -3.822000000    -4.279000000
O    -3.462000000    -4.832000000    -3.549000000
C    -2.191000000    -4.906000000    -3.073000000
C    -1.894000000    -5.894000000    -2.123000000
H    -2.641000000    -6.655000000    -1.909000000
C    -0.582000000    -6.027000000    -1.546000000
O    -0.261000000    -7.078000000    -0.632000000
C     0.740000000    -6.819000000     0.315000000
C     2.039000000    -7.218000000    -0.037000000
H     2.243000000    -7.666000000    -1.007000000
C     3.110000000    -7.053000000     0.811000000
H     4.128000000    -7.304000000     0.525000000
C     2.877000000    -6.562000000     2.078000000
H     3.659000000    -6.648000000     2.828000000
C     1.598000000    -6.107000000     2.433000000
C     0.529000000    -6.280000000     1.575000000
H    -0.468000000    -5.881000000     1.748000000
C    -2.228000000     0.021000000     1.563000000
H    -2.532000000     0.322000000     2.562000000
C    -0.948000000     0.386000000     1.124000000
H    -0.241000000     0.873000000     1.791000000
C    -0.568000000    -0.052000000    -0.151000000
C     0.789000000     0.305000000    -0.658000000
H     1.221000000     1.270000000    -0.381000000
H     1.495000000    -0.404000000    -0.220000000
H     0.982000000     0.216000000    -1.729000000
C    -1.400000000    -0.799000000    -0.891000000
H    -1.052000000    -1.141000000    -1.863000000
C    -2.676000000    -1.218000000    -0.448000000
H    -3.419000000    -1.744000000    -1.041000000
C    -3.088000000    -0.774000000     0.771000000
C    -4.377000000    -1.215000000     1.380000000
O    -5.048000000    -2.104000000     0.866000000
O    -4.728000000    -0.827000000     2.477000000
O    -7.727000000    -3.885000000    -1.904000000
H    -8.580000000    -4.234000000    -1.646000000
H    -7.806000000    -3.730000000    -2.845000000
O    -9.950000000    -1.363000000     1.665000000
H   -10.317000000    -2.154000000     2.059000000
H    -9.346000000    -1.687000000     0.996000000
O    -7.475000000    -3.913000000     1.288000000
H    -6.996000000    -4.583000000     0.800000000
H    -6.991000000    -3.104000000     1.124000000
O    -7.663000000    -1.452000000    -0.684000000
H    -6.831000000    -1.410000000    -0.212000000
H    -7.574000000    -2.213000000    -1.258000000
O    -6.551000000     0.772000000     3.659000000
H    -6.025000000     0.045000000     3.326000000
H    -5.908000000     1.410000000     3.971000000
O   -10.075000000     1.156000000     0.248000000
H   -10.165000000     0.439000000     0.876000000
H   -10.175000000     0.739000000    -0.608000000
O   -10.178000000    -0.563000000    -1.744000000
H   -10.737000000    -1.338000000    -1.692000000
H    -9.304000000    -0.882000000    -1.516000000
O    -8.165000000     2.801000000     2.513000000
H    -7.497000000     2.317000000     2.998000000
H    -8.712000000     2.123000000     2.117000000
O    -5.477000000    -3.154000000     3.862000000
H    -5.265000000    -3.934000000     3.351000000
H    -5.467000000    -2.440000000     3.225000000
O    -1.353000000    -5.327000000     4.730000000
H    -1.643000000    -4.437000000     4.527000000
H    -0.409000000    -5.312000000     4.575000000
O    -2.014000000    -2.450000000     4.654000000
H    -1.735000000    -2.560000000     3.745000000
H    -2.601000000    -1.694000000     4.635000000
O    -3.191000000    -5.933000000     2.315000000
H    -2.483000000    -5.701000000     2.916000000
H    -3.181000000    -5.241000000     1.654000000
O    -7.594000000     0.705000000     6.288000000
H    -8.490000000     1.024000000     6.179000000
H    -7.268000000     0.597000000     5.395000000
O    -3.659000000    -0.191000000     4.910000000
H    -4.081000000    -0.344000000     4.065000000
H    -4.133000000    -0.756000000     5.520000000
O    -3.463000000    -4.194000000     0.440000000
H    -3.793000000    -4.607000000    -0.358000000
H    -3.956000000    -3.377000000     0.510000000
O    -8.442000000    -4.172000000     3.858000000
H    -7.729000000    -3.641000000     4.212000000
H    -8.287000000    -4.183000000     2.914000000
O    -5.018000000    -1.883000000     6.525000000
H    -5.642000000    -2.270000000     7.140000000
H    -5.212000000    -2.306000000     5.689000000
O    -1.163000000    -2.883000000     1.510000000
H    -1.014000000    -2.119000000     0.953000000
H    -1.678000000    -3.479000000     0.966000000
O    -5.861000000    -6.841000000     3.443000000
H    -5.910000000    -6.280000000     4.218000000
H    -4.954000000    -6.760000000     3.146000000
