218
-1471.83821
C    -0.087000000     4.981000000     2.368000000
H    -0.258000000     5.532000000     1.447000000
C     1.033000000     4.137000000     2.489000000
C     1.312000000     3.557000000     3.711000000
H     2.200000000     2.935000000     3.792000000
C     1.890000000     3.795000000     1.288000000
O     1.740000000     4.792000000     0.201000000
H     1.639000000     2.817000000     0.852000000
O     3.227000000     3.651000000     1.677000000
C     3.930000000     2.598000000     1.133000000
C     4.050000000     1.425000000     1.858000000
H     3.850000000     1.425000000     2.926000000
C     4.465000000     0.220000000     1.302000000
O     4.380000000    -0.834000000     2.205000000
C     4.759000000     0.153000000     0.013000000
C     5.252000000    -1.070000000    -0.649000000
H     5.938000000    -0.916000000    -1.486000000
C     4.092000000    -1.942000000    -1.052000000
C     3.773000000    -1.911000000    -2.369000000
H     4.391000000    -1.406000000    -3.108000000
H     5.791000000    -1.691000000     0.070000000
C     4.678000000     1.370000000    -0.776000000
H     4.990000000     1.388000000    -1.817000000
C     4.281000000     2.568000000    -0.252000000
C     4.169000000     3.789000000    -1.147000000
H     4.886000000     3.745000000    -1.970000000
H     4.392000000     4.703000000    -0.592000000
C     2.746000000     3.858000000    -1.725000000
C     2.539000000     3.236000000    -2.971000000
H     3.333000000     2.636000000    -3.409000000
C     1.679000000     4.356000000    -1.075000000
C     0.426000000     4.286000000    -1.622000000
H    -0.406000000     4.632000000    -1.013000000
C     0.181000000     3.686000000    -2.861000000
O    -1.146000000     3.536000000    -3.362000000
C    -1.604000000     2.180000000    -3.281000000
C    -3.011000000     2.092000000    -2.646000000
C    -4.009000000     1.259000000    -3.117000000
H    -3.781000000     0.555000000    -3.913000000
C    -3.196000000     2.887000000    -1.512000000
H    -2.397000000     3.372000000    -0.957000000
O    -1.651000000     1.522000000    -4.570000000
H    -1.011000000     1.596000000    -2.561000000
C     1.249000000     3.172000000    -3.504000000
C     1.080000000     2.481000000    -4.861000000
H     1.935000000     2.660000000    -5.517000000
H     0.237000000     3.071000000    -5.226000000
C     0.638000000     0.981000000    -4.815000000
C     1.515000000    -0.051000000    -4.661000000
H     2.537000000     0.320000000    -4.657000000
C    -0.693000000     0.513000000    -4.748000000
C    -1.121000000    -0.746000000    -4.471000000
H    -2.168000000    -1.005000000    -4.334000000
C    -0.234000000    -1.750000000    -4.374000000
O    -0.571000000    -3.034000000    -3.933000000
C    -0.431000000    -3.250000000    -2.553000000
C    -1.675000000    -3.879000000    -1.995000000
C    -2.931000000    -3.785000000    -2.597000000
H    -3.021000000    -3.189000000    -3.501000000
C    -1.494000000    -4.570000000    -0.788000000
H    -0.537000000    -4.627000000    -0.275000000
O     0.732000000    -4.049000000    -2.259000000
H    -0.204000000    -2.272000000    -2.104000000
C     1.118000000    -1.385000000    -4.457000000
C     2.175000000    -2.434000000    -4.266000000
H     3.042000000    -2.312000000    -4.918000000
H     1.726000000    -3.354000000    -4.645000000
C     2.665000000    -2.576000000    -2.863000000
C     1.917000000    -3.396000000    -1.916000000
C     2.440000000    -3.554000000    -0.666000000
H     1.865000000    -4.209000000    -0.016000000
C     3.538000000    -2.838000000    -0.212000000
O     3.879000000    -2.946000000     1.132000000
C     3.346000000    -1.864000000     1.927000000
H     2.581000000    -1.375000000     1.307000000
C     2.749000000    -2.457000000     3.209000000
C     2.764000000    -1.767000000     4.416000000
H     3.260000000    -0.800000000     4.396000000
C     2.042000000    -3.647000000     3.169000000
H     2.024000000    -4.152000000     2.207000000
C     1.481000000    -4.178000000     4.317000000
O     0.755000000    -5.343000000     4.367000000
C     1.579000000    -3.473000000     5.553000000
H     1.170000000    -3.886000000     6.472000000
C     2.181000000    -2.259000000     5.541000000
O     2.218000000    -1.473000000     6.693000000
C     2.492000000    -0.137000000     6.690000000
C     1.501000000     0.694000000     6.147000000
H     0.623000000     0.332000000     5.619000000
C     3.583000000     0.405000000     7.301000000
H     4.154000000    -0.400000000     7.755000000
C     3.816000000     1.809000000     7.348000000
H     4.664000000     2.187000000     7.914000000
C     2.704000000     2.594000000     6.958000000
H     2.707000000     3.657000000     7.187000000
C     1.628000000     2.060000000     6.283000000
O     0.506000000     2.865000000     5.916000000
C     0.331000000     3.607000000     4.700000000
C    -0.810000000     4.372000000     4.566000000
H    -1.541000000     4.331000000     5.371000000
C    -0.987000000     5.120000000     3.406000000
O    -2.124000000     5.906000000     3.320000000
C    -2.862000000     6.032000000     2.152000000
C    -3.553000000     4.947000000     1.740000000
H    -3.631000000     4.088000000     2.402000000
C    -2.856000000     7.131000000     1.302000000
H    -2.328000000     8.004000000     1.677000000
C    -3.407000000     7.068000000     0.011000000
H    -3.423000000     7.966000000    -0.601000000
C    -4.026000000     5.892000000    -0.431000000
H    -4.401000000     5.669000000    -1.426000000
C    -4.127000000     4.876000000     0.465000000
O    -4.840000000     3.769000000     0.114000000
C    -4.471000000     2.969000000    -0.984000000
C    -5.519000000     2.212000000    -1.525000000
H    -6.555000000     2.350000000    -1.225000000
C    -5.265000000     1.249000000    -2.505000000
O    -6.353000000     0.508000000    -3.035000000
C    -6.200000000    -0.734000000    -3.591000000
C    -5.603000000    -1.780000000    -2.798000000
H    -5.162000000    -1.686000000    -1.809000000
C    -6.742000000    -1.028000000    -4.886000000
H    -7.131000000    -0.238000000    -5.523000000
C    -6.807000000    -2.304000000    -5.338000000
H    -7.250000000    -2.473000000    -6.317000000
C    -6.292000000    -3.378000000    -4.569000000
H    -6.282000000    -4.382000000    -4.986000000
C    -5.720000000    -3.108000000    -3.334000000
O    -5.240000000    -4.182000000    -2.511000000
C    -3.976000000    -4.379000000    -2.002000000
C    -3.899000000    -4.985000000    -0.734000000
H    -4.773000000    -5.378000000    -0.221000000
C    -2.591000000    -5.189000000    -0.177000000
O    -2.535000000    -6.012000000     0.927000000
C    -1.317000000    -6.343000000     1.604000000
C    -0.584000000    -7.480000000     1.224000000
H    -0.884000000    -8.075000000     0.365000000
C     0.533000000    -7.912000000     1.868000000
H     1.066000000    -8.827000000     1.623000000
C     0.976000000    -7.211000000     2.960000000
H     1.776000000    -7.569000000     3.603000000
C     0.295000000    -6.057000000     3.332000000
C    -0.783000000    -5.548000000     2.605000000
H    -1.310000000    -4.693000000     3.022000000
C    -3.729000000     0.750000000     1.546000000
H    -4.449000000     1.493000000     1.879000000
C    -2.387000000     1.143000000     1.530000000
H    -2.174000000     2.121000000     1.954000000
C    -1.471000000     0.158000000     1.039000000
C    -0.031000000     0.527000000     0.970000000
H     0.165000000     1.092000000     1.884000000
H     0.497000000    -0.424000000     0.876000000
H     0.291000000     1.056000000     0.071000000
C    -1.893000000    -1.006000000     0.481000000
H    -1.128000000    -1.680000000     0.105000000
C    -3.255000000    -1.377000000     0.548000000
H    -3.586000000    -2.332000000     0.149000000
C    -4.199000000    -0.487000000     1.101000000
C    -5.677000000    -0.810000000     1.068000000
O    -6.042000000    -1.780000000     0.434000000
O    -6.472000000    -0.110000000     1.768000000
O    -5.581000000    -0.327000000     4.293000000
H    -6.178000000    -0.986000000     4.647000000
H    -5.866000000    -0.206000000     3.388000000
O    -8.132000000    -2.725000000    -0.886000000
H    -7.360000000    -2.412000000    -0.414000000
H    -7.825000000    -3.496000000    -1.363000000
O   -11.598000000     0.221000000     1.493000000
H   -11.246000000    -0.107000000     2.320000000
H   -11.338000000    -0.434000000     0.845000000
O    -7.008000000     2.420000000     3.080000000
H    -7.767000000     2.080000000     3.555000000
H    -6.627000000     1.652000000     2.656000000
O    -3.772000000    -3.439000000     4.454000000
H    -4.532000000    -2.985000000     4.817000000
H    -4.135000000    -4.224000000     4.045000000
O    -7.554000000     5.291000000     2.799000000
H    -7.135000000     4.430000000     2.796000000
H    -7.096000000     5.778000000     3.483000000
O    -7.839000000     1.099000000     5.407000000
H    -7.020000000     0.614000000     5.503000000
H    -7.779000000     1.802000000     6.055000000
O    -3.226000000     1.307000000     4.862000000
H    -4.035000000     0.813000000     4.732000000
H    -2.539000000     0.739000000     4.512000000
O    -8.569000000    -1.230000000     2.998000000
H    -9.155000000    -1.357000000     2.252000000
H    -7.783000000    -0.835000000     2.620000000
O    -8.183000000     0.706000000    -0.182000000
H    -7.389000000     0.402000000     0.258000000
H    -8.581000000    -0.089000000    -0.534000000
O   -10.105000000    -2.163000000     0.954000000
H   -10.722000000    -2.750000000     1.393000000
H    -9.688000000    -2.709000000     0.288000000
O    -7.081000000    -2.431000000     4.827000000
H    -7.029000000    -3.382000000     4.733000000
H    -7.810000000    -2.173000000     4.263000000
O    -9.889000000    -1.828000000    -3.145000000
H    -9.913000000    -2.771000000    -2.983000000
H    -9.333000000    -1.479000000    -2.449000000
O   -10.576000000     0.112000000     4.471000000
H    -9.751000000    -0.189000000     4.089000000
H   -10.355000000     0.330000000     5.376000000
O    -6.876000000    -3.984000000     1.818000000
H    -6.615000000    -4.451000000     1.024000000
H    -6.807000000    -3.058000000     1.585000000
O    -9.210000000     3.181000000    -0.060000000
H    -8.625000000     2.424000000    -0.083000000
H    -9.958000000     2.922000000    -0.599000000
O    -1.631000000    -1.139000000     4.215000000
H    -2.259000000    -1.860000000     4.262000000
H    -1.531000000    -0.969000000     3.279000000
O    -6.564000000    -4.999000000     4.303000000
H    -6.653000000    -4.615000000     3.432000000
H    -6.163000000    -5.855000000     4.148000000
O    -4.467000000    -6.158000000     3.004000000
H    -3.557000000    -6.402000000     3.174000000
H    -4.807000000    -6.867000000     2.458000000
