218
-1471.12506
C    -1.087000000     3.489000000     4.001000000
H    -1.563000000     3.769000000     3.065000000
C     0.294000000     3.222000000     3.976000000
C     0.898000000     2.653000000     5.078000000
H     1.952000000     2.389000000     5.034000000
C     1.077000000     3.399000000     2.668000000
O     0.478000000     4.594000000     2.045000000
H     0.855000000     2.607000000     1.938000000
O     2.456000000     3.592000000     2.929000000
C     3.239000000     2.974000000     1.941000000
C     3.618000000     1.684000000     2.215000000
H     3.428000000     1.338000000     3.228000000
C     4.285000000     0.969000000     1.212000000
O     4.582000000    -0.335000000     1.478000000
C     4.574000000     1.484000000    -0.012000000
C     5.234000000     0.665000000    -1.169000000
H     5.620000000     1.493000000    -1.768000000
C     4.232000000    -0.133000000    -2.008000000
C     3.800000000     0.372000000    -3.266000000
H     4.068000000     1.371000000    -3.597000000
H     6.124000000     0.118000000    -0.854000000
C     4.134000000     2.763000000    -0.282000000
H     4.432000000     3.256000000    -1.203000000
C     3.536000000     3.554000000     0.690000000
C     2.851000000     4.900000000     0.335000000
H     3.495000000     5.399000000    -0.392000000
H     2.846000000     5.486000000     1.257000000
C     1.445000000     4.714000000    -0.170000000
C     1.294000000     4.522000000    -1.553000000
H     2.228000000     4.346000000    -2.081000000
C     0.356000000     4.736000000     0.718000000
C    -0.900000000     4.499000000     0.173000000
H    -1.660000000     4.205000000     0.892000000
C    -1.129000000     4.284000000    -1.210000000
O    -2.315000000     3.771000000    -1.636000000
C    -2.565000000     2.417000000    -1.884000000
C    -3.796000000     1.850000000    -1.258000000
C    -4.301000000     0.617000000    -1.716000000
H    -3.715000000     0.254000000    -2.556000000
C    -4.408000000     2.377000000    -0.100000000
H    -4.057000000     3.348000000     0.240000000
O    -2.487000000     2.228000000    -3.294000000
H    -1.758000000     1.780000000    -1.493000000
C     0.015000000     4.365000000    -2.098000000
C    -0.160000000     4.071000000    -3.525000000
H     0.702000000     4.491000000    -4.048000000
H    -1.094000000     4.555000000    -3.820000000
C    -0.148000000     2.566000000    -3.815000000
C     1.020000000     2.044000000    -4.270000000
H     1.930000000     2.636000000    -4.327000000
C    -1.364000000     1.806000000    -3.858000000
C    -1.335000000     0.507000000    -4.399000000
H    -2.261000000    -0.063000000    -4.409000000
C    -0.150000000     0.039000000    -4.857000000
O    -0.191000000    -1.323000000    -5.175000000
C     0.321000000    -2.153000000    -4.091000000
C    -0.457000000    -3.475000000    -3.896000000
C    -1.765000000    -3.553000000    -4.319000000
H    -2.255000000    -2.754000000    -4.870000000
C     0.078000000    -4.508000000    -3.046000000
H     1.057000000    -4.411000000    -2.582000000
O     1.734000000    -2.483000000    -4.294000000
H     0.206000000    -1.581000000    -3.158000000
C     1.037000000     0.755000000    -4.840000000
C     2.336000000     0.190000000    -5.282000000
H     3.021000000     0.898000000    -5.753000000
H     2.091000000    -0.653000000    -5.931000000
C     2.979000000    -0.413000000    -4.037000000
C     2.647000000    -1.692000000    -3.547000000
C     3.096000000    -2.191000000    -2.351000000
H     2.770000000    -3.179000000    -2.036000000
C     3.885000000    -1.375000000    -1.556000000
O     4.305000000    -1.869000000    -0.322000000
C     3.665000000    -1.320000000     0.925000000
H     2.691000000    -0.872000000     0.680000000
C     3.288000000    -2.431000000     1.934000000
C     3.081000000    -2.097000000     3.272000000
H     3.443000000    -1.120000000     3.583000000
C     3.017000000    -3.759000000     1.533000000
H     3.273000000    -4.249000000     0.597000000
C     2.274000000    -4.619000000     2.370000000
O     1.818000000    -5.851000000     1.933000000
C     2.010000000    -4.258000000     3.637000000
H     1.413000000    -4.875000000     4.305000000
C     2.392000000    -3.014000000     4.075000000
O     2.030000000    -2.712000000     5.276000000
C     2.366000000    -1.534000000     5.917000000
C     1.493000000    -0.435000000     6.013000000
H     0.550000000    -0.397000000     5.473000000
C     3.482000000    -1.613000000     6.692000000
H     4.144000000    -2.475000000     6.705000000
C     3.717000000    -0.634000000     7.655000000
H     4.545000000    -0.618000000     8.359000000
C     2.848000000     0.460000000     7.745000000
H     3.121000000     1.120000000     8.565000000
C     1.691000000     0.577000000     6.957000000
O     0.817000000     1.610000000     7.230000000
C     0.160000000     2.297000000     6.177000000
C    -1.188000000     2.512000000     6.184000000
H    -1.738000000     2.137000000     7.044000000
C    -1.837000000     3.110000000     5.107000000
O    -3.145000000     3.481000000     5.253000000
C    -3.898000000     3.867000000     4.233000000
C    -4.383000000     2.891000000     3.351000000
H    -3.985000000     1.887000000     3.477000000
C    -4.227000000     5.211000000     4.094000000
H    -3.724000000     5.984000000     4.671000000
C    -5.082000000     5.604000000     3.088000000
H    -5.255000000     6.674000000     3.007000000
C    -5.679000000     4.603000000     2.275000000
H    -6.496000000     4.877000000     1.612000000
C    -5.337000000     3.251000000     2.394000000
O    -6.077000000     2.416000000     1.614000000
C    -5.505000000     1.767000000     0.536000000
C    -6.035000000     0.679000000    -0.095000000
H    -6.972000000     0.197000000     0.168000000
C    -5.400000000     0.005000000    -1.178000000
O    -6.134000000    -0.993000000    -1.811000000
C    -5.760000000    -1.653000000    -2.949000000
C    -4.905000000    -2.778000000    -2.948000000
H    -4.394000000    -3.070000000    -2.035000000
C    -6.361000000    -1.269000000    -4.185000000
H    -7.127000000    -0.501000000    -4.118000000
C    -6.201000000    -1.997000000    -5.316000000
H    -6.861000000    -1.796000000    -6.156000000
C    -5.363000000    -3.070000000    -5.360000000
H    -5.257000000    -3.705000000    -6.236000000
C    -4.670000000    -3.475000000    -4.169000000
O    -3.913000000    -4.674000000    -4.245000000
C    -2.568000000    -4.624000000    -3.882000000
C    -2.042000000    -5.637000000    -3.117000000
H    -2.674000000    -6.489000000    -2.881000000
C    -0.769000000    -5.519000000    -2.645000000
O    -0.345000000    -6.694000000    -2.132000000
C     0.843000000    -6.785000000    -1.420000000
C     2.052000000    -7.342000000    -1.933000000
H     2.099000000    -7.893000000    -2.868000000
C     3.194000000    -7.260000000    -1.195000000
H     4.123000000    -7.576000000    -1.662000000
C     3.177000000    -6.629000000     0.071000000
H     4.096000000    -6.495000000     0.635000000
C     1.938000000    -6.342000000     0.660000000
C     0.793000000    -6.364000000    -0.072000000
H    -0.133000000    -6.022000000     0.384000000
C    -1.895000000    -0.589000000     2.001000000
H    -2.646000000    -0.316000000     2.738000000
C    -1.156000000     0.325000000     1.257000000
H    -1.384000000     1.386000000     1.322000000
C    -0.097000000    -0.161000000     0.427000000
C     0.789000000     0.790000000    -0.337000000
H     1.207000000     0.247000000    -1.188000000
H     0.170000000     1.557000000    -0.806000000
H     1.678000000     1.144000000     0.189000000
C     0.170000000    -1.512000000     0.402000000
H     1.046000000    -2.006000000    -0.012000000
C    -0.683000000    -2.400000000     1.085000000
H    -0.468000000    -3.464000000     1.123000000
C    -1.678000000    -1.950000000     1.921000000
C    -2.616000000    -2.935000000     2.523000000
O    -2.504000000    -4.137000000     2.256000000
O    -3.578000000    -2.526000000     3.183000000
O    -2.127000000    -7.967000000     0.244000000
H    -1.677000000    -7.946000000    -0.600000000
H    -3.010000000    -8.275000000     0.037000000
O    -1.099000000    -5.788000000     4.068000000
H    -1.009000000    -6.603000000     3.574000000
H    -1.347000000    -5.137000000     3.412000000
O    -5.502000000    -5.782000000     1.922000000
H    -4.706000000    -5.774000000     1.390000000
H    -5.439000000    -6.588000000     2.434000000
O    -0.523000000    -8.024000000     2.319000000
H    -0.596000000    -8.888000000     2.726000000
H    -0.896000000    -8.139000000     1.445000000
O    -4.819000000    -8.279000000     3.008000000
H    -4.366000000    -8.473000000     3.829000000
H    -4.533000000    -8.969000000     2.409000000
O    -7.526000000     0.449000000     3.583000000
H    -6.821000000    -0.085000000     3.948000000
H    -7.148000000     1.325000000     3.505000000
O    -8.281000000    -2.674000000    -0.472000000
H    -7.782000000    -2.987000000     0.283000000
H    -7.660000000    -2.135000000    -0.962000000
O    -4.295000000    -4.085000000     7.091000000
H    -4.455000000    -4.514000000     6.251000000
H    -4.944000000    -3.382000000     7.128000000
O    -3.261000000    -5.258000000     0.061000000
H    -2.447000000    -5.476000000    -0.394000000
H    -2.976000000    -4.876000000     0.891000000
O    -2.832000000    -8.420000000     5.140000000
H    -3.249000000    -8.256000000     5.986000000
H    -2.788000000    -7.559000000     4.724000000
O    -7.984000000    -2.667000000     3.388000000
H    -8.209000000    -1.764000000     3.163000000
H    -7.135000000    -2.814000000     2.971000000
O    -4.584000000    -4.717000000     4.455000000
H    -4.953000000    -5.308000000     3.799000000
H    -3.768000000    -4.404000000     4.063000000
O    -5.415000000    -6.252000000    -1.658000000
H    -4.966000000    -5.739000000    -0.986000000
H    -4.972000000    -6.019000000    -2.474000000
O    -1.439000000    -4.718000000     6.716000000
H    -1.102000000    -5.060000000     5.888000000
H    -2.317000000    -4.402000000     6.505000000
O    -5.874000000     1.241000000     5.844000000
H    -5.444000000     0.652000000     5.225000000
H    -5.337000000     1.192000000     6.634000000
O    -5.996000000    -3.163000000     1.619000000
H    -5.183000000    -2.822000000     1.993000000
H    -5.889000000    -4.114000000     1.641000000
O    -5.353000000    -1.067000000     4.254000000
H    -4.587000000    -1.348000000     3.753000000
H    -5.464000000    -1.744000000     4.922000000
O    -6.171000000    -2.051000000     7.103000000
H    -6.931000000    -2.618000000     7.234000000
H    -6.383000000    -1.252000000     7.585000000
O    -8.435000000    -6.032000000     2.265000000
H    -8.737000000    -5.420000000     2.936000000
H    -7.610000000    -5.659000000     1.955000000
