218
-1461.11430
C    -1.501000000     3.662000000     3.258000000
H    -1.566000000     4.427000000     2.489000000
C    -0.328000000     3.061000000     3.535000000
C    -0.174000000     2.223000000     4.584000000
H     0.788000000     1.748000000     4.759000000
C     0.874000000     3.240000000     2.572000000
O     0.924000000     4.567000000     2.050000000
H     0.762000000     2.560000000     1.714000000
O     2.207000000     2.978000000     3.186000000
C     3.013000000     2.102000000     2.543000000
C     3.029000000     0.775000000     2.950000000
H     2.396000000     0.383000000     3.742000000
C     3.930000000    -0.055000000     2.292000000
O     3.982000000    -1.395000000     2.580000000
C     4.739000000     0.407000000     1.235000000
C     5.634000000    -0.602000000     0.476000000
H     6.459000000    -0.065000000     0.002000000
C     4.774000000    -1.368000000    -0.556000000
C     4.564000000    -0.761000000    -1.815000000
H     5.084000000     0.145000000    -2.115000000
H     6.025000000    -1.279000000     1.238000000
C     4.755000000     1.770000000     0.919000000
H     5.443000000     2.053000000     0.126000000
C     3.834000000     2.654000000     1.487000000
C     3.754000000     4.108000000     1.068000000
H     4.664000000     4.372000000     0.525000000
H     3.885000000     4.807000000     1.897000000
C     2.529000000     4.257000000     0.135000000
C     2.608000000     4.070000000    -1.239000000
H     3.513000000     3.751000000    -1.750000000
C     1.271000000     4.549000000     0.688000000
C     0.160000000     4.708000000    -0.180000000
H    -0.844000000     4.787000000     0.230000000
C     0.213000000     4.501000000    -1.542000000
O    -0.936000000     4.455000000    -2.242000000
C    -1.389000000     3.052000000    -2.547000000
C    -2.883000000     2.827000000    -2.337000000
C    -3.538000000     1.694000000    -2.752000000
H    -3.039000000     0.989000000    -3.412000000
C    -3.645000000     3.779000000    -1.614000000
H    -3.171000000     4.612000000    -1.102000000
O    -1.045000000     2.723000000    -3.890000000
H    -0.959000000     2.362000000    -1.806000000
C     1.486000000     4.149000000    -2.052000000
C     1.652000000     3.969000000    -3.535000000
H     2.641000000     4.279000000    -3.878000000
H     0.934000000     4.524000000    -4.143000000
C     1.392000000     2.501000000    -3.815000000
C     2.508000000     1.664000000    -3.936000000
H     3.490000000     2.105000000    -3.789000000
C     0.056000000     1.920000000    -3.974000000
C    -0.041000000     0.607000000    -4.347000000
H    -0.980000000     0.171000000    -4.678000000
C     1.095000000    -0.319000000    -4.357000000
O     0.796000000    -1.644000000    -4.559000000
C     0.871000000    -2.470000000    -3.367000000
C    -0.272000000    -3.451000000    -3.518000000
C    -1.373000000    -3.197000000    -4.320000000
H    -1.432000000    -2.279000000    -4.899000000
C    -0.254000000    -4.660000000    -2.890000000
H     0.589000000    -4.958000000    -2.272000000
O     2.169000000    -3.083000000    -3.268000000
H     0.731000000    -1.909000000    -2.431000000
C     2.377000000     0.268000000    -4.183000000
C     3.543000000    -0.693000000    -4.144000000
H     4.374000000    -0.134000000    -4.578000000
H     3.371000000    -1.386000000    -4.971000000
C     3.728000000    -1.351000000    -2.763000000
C     3.100000000    -2.520000000    -2.419000000
C     3.449000000    -3.214000000    -1.294000000
H     3.017000000    -4.193000000    -1.101000000
C     4.171000000    -2.606000000    -0.285000000
O     3.936000000    -3.083000000     0.985000000
C     3.072000000    -2.253000000     1.881000000
H     2.425000000    -1.601000000     1.277000000
C     2.176000000    -3.089000000     2.814000000
C     1.907000000    -2.747000000     4.095000000
H     2.468000000    -1.949000000     4.574000000
C     1.536000000    -4.129000000     2.273000000
H     1.778000000    -4.462000000     1.267000000
C     0.616000000    -4.901000000     2.985000000
O     0.030000000    -6.008000000     2.360000000
C     0.372000000    -4.612000000     4.296000000
H    -0.344000000    -5.170000000     4.894000000
C     0.956000000    -3.449000000     4.878000000
O     0.743000000    -3.256000000     6.226000000
C     0.777000000    -2.022000000     6.766000000
C    -0.138000000    -1.093000000     6.375000000
H    -1.039000000    -1.483000000     5.909000000
C     1.808000000    -1.629000000     7.622000000
H     2.515000000    -2.410000000     7.890000000
C     1.884000000    -0.344000000     8.030000000
H     2.699000000    -0.149000000     8.722000000
C     0.941000000     0.553000000     7.615000000
H     1.017000000     1.541000000     8.062000000
C    -0.154000000     0.201000000     6.811000000
O    -1.172000000     1.027000000     6.460000000
C    -1.250000000     1.932000000     5.434000000
C    -2.487000000     2.531000000     5.219000000
H    -3.353000000     2.229000000     5.803000000
C    -2.600000000     3.378000000     4.087000000
O    -3.852000000     3.904000000     3.842000000
C    -4.145000000     4.769000000     2.772000000
C    -4.617000000     4.222000000     1.521000000
H    -4.573000000     3.159000000     1.298000000
C    -4.077000000     6.117000000     2.855000000
H    -3.736000000     6.732000000     3.683000000
C    -4.487000000     6.940000000     1.788000000
H    -4.382000000     8.010000000     1.953000000
C    -5.081000000     6.400000000     0.665000000
H    -5.361000000     7.018000000    -0.184000000
C    -5.153000000     5.040000000     0.522000000
O    -5.613000000     4.536000000    -0.621000000
C    -4.963000000     3.555000000    -1.384000000
C    -5.631000000     2.388000000    -1.829000000
H    -6.671000000     2.211000000    -1.568000000
C    -4.878000000     1.449000000    -2.527000000
O    -5.457000000     0.221000000    -2.755000000
C    -5.231000000    -0.522000000    -3.892000000
C    -4.567000000    -1.731000000    -3.827000000
H    -4.285000000    -2.113000000    -2.849000000
C    -5.588000000    -0.009000000    -5.104000000
H    -5.999000000     0.998000000    -5.094000000
C    -5.333000000    -0.714000000    -6.254000000
H    -5.604000000    -0.346000000    -7.240000000
C    -4.577000000    -1.900000000    -6.322000000
H    -4.428000000    -2.510000000    -7.209000000
C    -4.229000000    -2.443000000    -5.037000000
O    -3.691000000    -3.747000000    -4.987000000
C    -2.459000000    -4.059000000    -4.401000000
C    -2.377000000    -5.349000000    -3.781000000
H    -3.226000000    -6.024000000    -3.718000000
C    -1.217000000    -5.661000000    -3.043000000
O    -1.146000000    -6.934000000    -2.396000000
C    -0.347000000    -7.064000000    -1.235000000
C     0.874000000    -7.731000000    -1.393000000
H     1.230000000    -8.110000000    -2.347000000
C     1.747000000    -7.871000000    -0.336000000
H     2.699000000    -8.374000000    -0.488000000
C     1.410000000    -7.267000000     0.859000000
H     1.933000000    -7.478000000     1.788000000
C     0.241000000    -6.528000000     1.052000000
C    -0.672000000    -6.466000000    -0.041000000
H    -1.630000000    -5.970000000     0.092000000
C    -2.437000000    -0.475000000     0.134000000
H    -3.387000000     0.010000000     0.346000000
C    -1.287000000     0.289000000     0.063000000
H    -1.410000000     1.363000000     0.174000000
C    -0.037000000    -0.282000000    -0.130000000
C     1.219000000     0.523000000    -0.421000000
H     2.068000000     0.449000000     0.262000000
H     1.742000000     0.082000000    -1.272000000
H     0.992000000     1.504000000    -0.845000000
C     0.059000000    -1.630000000    -0.136000000
H     1.029000000    -2.109000000    -0.243000000
C    -1.112000000    -2.424000000    -0.053000000
H    -1.007000000    -3.505000000    -0.003000000
C    -2.404000000    -1.866000000     0.072000000
C    -3.621000000    -2.720000000     0.323000000
O    -3.656000000    -3.888000000     0.088000000
O    -4.555000000    -2.276000000     0.999000000
O    -2.864000000    -5.839000000     3.178000000
H    -2.056000000    -5.712000000     2.680000000
H    -2.780000000    -5.249000000     3.926000000
O    -5.584000000    -9.152000000     1.948000000
H    -6.300000000    -9.481000000     1.404000000
H    -5.549000000    -8.215000000     1.757000000
O    -2.969000000    -4.596000000     5.498000000
H    -3.026000000    -5.247000000     6.197000000
H    -3.468000000    -3.848000000     5.827000000
O    -3.585000000    -8.935000000    -1.285000000
H    -2.809000000    -9.135000000    -0.760000000
H    -3.778000000    -8.019000000    -1.087000000
O    -6.517000000    -3.929000000     0.673000000
H    -5.709000000    -3.431000000     0.796000000
H    -7.196000000    -3.262000000     0.570000000
O    -8.460000000    -6.208000000     0.462000000
H    -8.950000000    -5.878000000    -0.291000000
H    -7.675000000    -5.661000000     0.497000000
O    -6.261000000    -0.442000000     0.764000000
H    -6.852000000    -0.759000000     0.081000000
H    -5.567000000    -1.100000000     0.805000000
O    -6.722000000     0.347000000     3.308000000
H    -6.534000000     0.320000000     2.369000000
H    -5.935000000    -0.009000000     3.719000000
O    -6.461000000    -4.436000000    -2.653000000
H    -6.372000000    -4.104000000    -1.760000000
H    -7.405000000    -4.475000000    -2.802000000
O    -8.805000000    -1.570000000     2.533000000
H    -8.708000000    -2.075000000     3.340000000
H    -7.921000000    -1.262000000     2.335000000
O    -1.858000000    -8.761000000     2.573000000
H    -2.134000000    -7.850000000     2.471000000
H    -1.588000000    -8.829000000     3.489000000
O    -4.012000000    -6.447000000    -0.305000000
H    -4.271000000    -6.525000000     0.613000000
H    -3.569000000    -5.600000000    -0.358000000
O    -5.626000000    -7.042000000    -2.314000000
H    -4.955000000    -6.758000000    -1.694000000
H    -6.075000000    -6.235000000    -2.567000000
O    -1.505000000    -1.122000000     3.254000000
H    -1.230000000    -0.363000000     3.768000000
H    -1.636000000    -0.778000000     2.370000000
O    -7.519000000    -2.434000000     5.046000000
H    -6.865000000    -1.737000000     5.104000000
H    -7.094000000    -3.195000000     5.443000000
O    -4.494000000    -1.230000000     3.813000000
H    -4.459000000    -1.574000000     2.921000000
H    -3.626000000    -1.410000000     4.174000000
O    -5.510000000    -6.130000000     2.120000000
H    -4.873000000    -5.965000000     2.814000000
H    -5.707000000    -5.264000000     1.763000000
O    -7.748000000    -1.723000000    -1.191000000
H    -8.664000000    -1.879000000    -1.420000000
H    -7.337000000    -1.456000000    -2.013000000
O    -8.037000000    -7.087000000     3.414000000
H    -7.312000000    -6.900000000     2.817000000
H    -8.330000000    -6.226000000     3.713000000
