218
-1443.34877
C    -1.817000000     3.546000000     3.484000000
H    -1.973000000     4.183000000     2.617000000
C    -0.567000000     3.163000000     3.881000000
C    -0.410000000     2.370000000     5.034000000
H     0.550000000     1.943000000     5.313000000
C     0.586000000     3.273000000     2.872000000
O     0.531000000     4.566000000     2.184000000
H     0.482000000     2.455000000     2.143000000
O     1.823000000     3.202000000     3.627000000
C     2.877000000     2.473000000     3.107000000
C     3.015000000     1.123000000     3.464000000
H     2.371000000     0.787000000     4.273000000
C     3.819000000     0.204000000     2.760000000
O     3.751000000    -1.080000000     3.183000000
C     4.538000000     0.679000000     1.650000000
C     5.394000000    -0.278000000     0.883000000
H     6.312000000     0.179000000     0.507000000
C     4.675000000    -0.962000000    -0.212000000
C     4.660000000    -0.327000000    -1.500000000
H     5.230000000     0.594000000    -1.594000000
H     5.852000000    -1.016000000     1.545000000
C     4.382000000     2.022000000     1.205000000
H     4.934000000     2.345000000     0.326000000
C     3.541000000     2.890000000     1.885000000
C     3.394000000     4.331000000     1.278000000
H     4.189000000     4.685000000     0.619000000
H     3.284000000     4.991000000     2.141000000
C     2.074000000     4.381000000     0.425000000
C     2.207000000     4.193000000    -0.947000000
H     3.223000000     4.145000000    -1.331000000
C     0.754000000     4.525000000     0.869000000
C    -0.300000000     4.472000000     0.047000000
H    -1.289000000     4.509000000     0.497000000
C    -0.177000000     4.265000000    -1.298000000
O    -1.230000000     4.197000000    -2.223000000
C    -1.492000000     2.900000000    -2.709000000
C    -2.909000000     2.484000000    -2.485000000
C    -3.431000000     1.488000000    -3.323000000
H    -2.793000000     0.999000000    -4.055000000
C    -3.687000000     2.920000000    -1.405000000
H    -3.320000000     3.669000000    -0.708000000
O    -0.951000000     2.600000000    -4.052000000
H    -0.994000000     2.279000000    -1.950000000
C     1.144000000     4.195000000    -1.820000000
C     1.478000000     4.091000000    -3.340000000
H     2.418000000     4.600000000    -3.558000000
H     0.681000000     4.660000000    -3.824000000
C     1.513000000     2.657000000    -3.785000000
C     2.729000000     1.887000000    -3.836000000
H     3.674000000     2.345000000    -3.554000000
C     0.292000000     1.985000000    -4.016000000
C     0.247000000     0.641000000    -4.434000000
H    -0.702000000     0.259000000    -4.800000000
C     1.422000000    -0.122000000    -4.366000000
O     1.472000000    -1.437000000    -4.729000000
C     1.296000000    -2.341000000    -3.585000000
C     0.338000000    -3.506000000    -3.896000000
C    -0.784000000    -3.202000000    -4.627000000
H    -0.865000000    -2.275000000    -5.189000000
C     0.540000000    -4.723000000    -3.256000000
H     1.454000000    -4.947000000    -2.714000000
O     2.544000000    -2.907000000    -3.156000000
H     0.873000000    -1.832000000    -2.706000000
C     2.609000000     0.514000000    -4.049000000
C     3.857000000    -0.361000000    -3.894000000
H     4.662000000     0.374000000    -3.964000000
H     4.028000000    -1.070000000    -4.707000000
C     3.936000000    -0.989000000    -2.488000000
C     3.254000000    -2.162000000    -2.234000000
C     3.299000000    -2.650000000    -0.964000000
H     2.892000000    -3.629000000    -0.723000000
C     3.963000000    -2.070000000     0.095000000
O     3.912000000    -2.683000000     1.325000000
C     3.067000000    -1.964000000     2.244000000
H     2.382000000    -1.359000000     1.632000000
C     2.067000000    -2.911000000     2.991000000
C     1.498000000    -2.513000000     4.183000000
H     1.860000000    -1.660000000     4.751000000
C     1.595000000    -3.925000000     2.224000000
H     2.052000000    -4.072000000     1.249000000
C     0.562000000    -4.718000000     2.708000000
O    -0.019000000    -5.741000000     1.959000000
C    -0.004000000    -4.396000000     3.954000000
H    -0.896000000    -4.893000000     4.326000000
C     0.428000000    -3.272000000     4.652000000
O    -0.353000000    -2.929000000     5.738000000
C    -0.128000000    -1.870000000     6.572000000
C    -0.717000000    -0.665000000     6.325000000
H    -1.452000000    -0.600000000     5.527000000
C     0.797000000    -2.063000000     7.648000000
H     1.382000000    -2.977000000     7.706000000
C     1.099000000    -1.026000000     8.446000000
H     1.681000000    -1.160000000     9.354000000
C     0.470000000     0.238000000     8.258000000
H     0.525000000     1.006000000     9.025000000
C    -0.468000000     0.422000000     7.195000000
O    -1.329000000     1.544000000     7.087000000
C    -1.523000000     2.190000000     5.843000000
C    -2.715000000     2.851000000     5.591000000
H    -3.585000000     2.849000000     6.244000000
C    -2.909000000     3.424000000     4.341000000
O    -4.228000000     3.904000000     4.060000000
C    -4.690000000     4.410000000     2.935000000
C    -5.014000000     3.537000000     1.882000000
H    -5.077000000     2.463000000     2.037000000
C    -4.415000000     5.726000000     2.553000000
H    -4.089000000     6.420000000     3.323000000
C    -4.801000000     6.276000000     1.347000000
H    -4.631000000     7.315000000     1.076000000
C    -5.285000000     5.390000000     0.388000000
H    -5.362000000     5.701000000    -0.650000000
C    -5.457000000     4.017000000     0.644000000
O    -5.790000000     3.233000000    -0.476000000
C    -4.983000000     2.600000000    -1.348000000
C    -5.513000000     1.600000000    -2.192000000
H    -6.521000000     1.230000000    -2.023000000
C    -4.766000000     0.998000000    -3.165000000
O    -5.383000000     0.025000000    -4.014000000
C    -4.812000000    -0.788000000    -4.998000000
C    -4.119000000    -1.937000000    -4.692000000
H    -4.142000000    -2.268000000    -3.657000000
C    -4.873000000    -0.410000000    -6.378000000
H    -5.310000000     0.568000000    -6.561000000
C    -4.145000000    -1.068000000    -7.359000000
H    -4.068000000    -0.599000000    -8.336000000
C    -3.446000000    -2.233000000    -6.991000000
H    -2.859000000    -2.708000000    -7.773000000
C    -3.485000000    -2.696000000    -5.701000000
O    -2.945000000    -3.908000000    -5.370000000
C    -1.820000000    -4.188000000    -4.679000000
C    -1.657000000    -5.400000000    -3.971000000
H    -2.462000000    -6.132000000    -3.974000000
C    -0.514000000    -5.696000000    -3.334000000
O    -0.485000000    -6.859000000    -2.699000000
C     0.237000000    -6.923000000    -1.530000000
C     1.518000000    -7.502000000    -1.456000000
H     1.992000000    -7.787000000    -2.391000000
C     2.289000000    -7.501000000    -0.276000000
H     3.324000000    -7.830000000    -0.327000000
C     1.833000000    -6.894000000     0.900000000
H     2.372000000    -6.832000000     1.842000000
C     0.539000000    -6.306000000     0.855000000
C    -0.298000000    -6.402000000    -0.301000000
H    -1.307000000    -6.007000000    -0.217000000
C    -3.005000000     0.320000000     0.414000000
H    -3.789000000     1.051000000     0.591000000
C    -1.723000000     0.697000000     0.153000000
H    -1.407000000     1.736000000     0.097000000
C    -0.713000000    -0.222000000    -0.304000000
C     0.739000000     0.270000000    -0.469000000
H     0.923000000     1.108000000    -1.145000000
H     1.071000000     0.546000000     0.534000000
H     1.440000000    -0.553000000    -0.623000000
C    -1.080000000    -1.522000000    -0.381000000
H    -0.331000000    -2.300000000    -0.499000000
C    -2.348000000    -1.983000000    -0.088000000
H    -2.613000000    -3.036000000    -0.131000000
C    -3.313000000    -1.031000000     0.339000000
C    -4.678000000    -1.455000000     0.642000000
O    -5.180000000    -2.457000000     0.222000000
O    -5.283000000    -0.746000000     1.404000000
O    -5.180000000    -5.047000000     1.750000000
H    -5.974000000    -5.280000000     2.231000000
H    -5.343000000    -4.157000000     1.436000000
O    -3.681000000    -5.861000000     4.486000000
H    -4.393000000    -6.497000000     4.551000000
H    -4.064000000    -5.120000000     4.016000000
O    -5.302000000    -0.023000000     6.815000000
H    -5.230000000     0.246000000     5.899000000
H    -5.679000000    -0.902000000     6.777000000
O    -7.717000000    -2.601000000     0.073000000
H    -6.784000000    -2.419000000     0.181000000
H    -7.975000000    -2.088000000    -0.693000000
O    -4.638000000    -6.813000000    -1.166000000
H    -5.577000000    -6.861000000    -1.346000000
H    -4.428000000    -5.882000000    -1.238000000
O    -7.354000000     0.693000000     1.331000000
H    -7.022000000     1.431000000     0.818000000
H    -6.598000000     0.118000000     1.440000000
O    -9.566000000    -1.530000000     4.532000000
H    -9.757000000    -2.287000000     5.086000000
H    -8.640000000    -1.625000000     4.309000000
O    -6.857000000     1.974000000     4.170000000
H    -7.524000000     1.594000000     3.598000000
H    -6.072000000     1.452000000     4.004000000
O    -4.118000000    -2.829000000     4.393000000
H    -3.461000000    -2.388000000     3.854000000
H    -3.633000000    -3.138000000     5.158000000
O    -7.554000000    -1.544000000    -2.872000000
H    -6.750000000    -1.289000000    -3.324000000
H    -8.168000000    -0.833000000    -3.055000000
O    -8.019000000    -4.060000000     4.800000000
H    -7.300000000    -3.526000000     4.464000000
H    -7.858000000    -4.933000000     4.441000000
O    -4.686000000    -4.080000000    -1.792000000
H    -3.815000000    -3.683000000    -1.790000000
H    -5.101000000    -3.750000000    -0.994000000
O    -5.769000000    -5.016000000    -4.342000000
H    -5.256000000    -4.751000000    -3.579000000
H    -6.680000000    -4.897000000    -4.072000000
O    -4.602000000     0.587000000     3.676000000
H    -4.586000000    -0.039000000     2.951000000
H    -3.681000000     0.806000000     3.823000000
O    -6.573000000    -2.145000000     3.755000000
H    -6.413000000    -1.939000000     2.834000000
H    -5.765000000    -2.565000000     4.051000000
O    -9.392000000    -4.150000000    -2.467000000
H    -9.569000000    -3.853000000    -3.359000000
H    -9.102000000    -3.364000000    -2.005000000
O    -4.093000000    -7.593000000     1.412000000
H    -4.133000000    -7.443000000     0.467000000
H    -4.613000000    -6.884000000     1.789000000
O   -10.108000000     0.366000000     2.178000000
H    -9.972000000    -0.463000000     2.636000000
H    -9.236000000     0.616000000     1.871000000
O    -8.004000000    -5.309000000     1.125000000
H    -7.567000000    -5.471000000     0.289000000
H    -8.179000000    -4.368000000     1.127000000
