218
-1481.55558
C    -2.962000000     4.107000000     2.361000000
H    -2.827000000     4.924000000     1.656000000
C    -1.885000000     3.317000000     2.702000000
C    -2.172000000     2.187000000     3.494000000
H    -1.345000000     1.565000000     3.826000000
C    -0.458000000     3.618000000     2.270000000
O    -0.193000000     4.864000000     1.639000000
H    -0.180000000     2.818000000     1.568000000
O     0.525000000     3.474000000     3.344000000
C     1.725000000     2.805000000     3.095000000
C     1.796000000     1.588000000     3.757000000
H     1.127000000     1.077000000     4.444000000
C     2.861000000     0.732000000     3.446000000
O     2.803000000    -0.525000000     4.013000000
C     3.850000000     1.119000000     2.642000000
C     5.120000000     0.280000000     2.441000000
H     5.991000000     0.931000000     2.337000000
C     4.870000000    -0.674000000     1.244000000
C     5.142000000    -0.225000000    -0.052000000
H     5.512000000     0.784000000    -0.210000000
H     5.357000000    -0.312000000     3.327000000
C     3.759000000     2.356000000     1.970000000
H     4.581000000     2.614000000     1.306000000
C     2.720000000     3.225000000     2.191000000
C     2.653000000     4.551000000     1.591000000
H     3.669000000     4.894000000     1.386000000
H     2.298000000     5.245000000     2.356000000
C     1.801000000     4.507000000     0.286000000
C     2.398000000     4.345000000    -0.953000000
H     3.478000000     4.229000000    -0.996000000
C     0.465000000     4.806000000     0.395000000
C    -0.318000000     4.815000000    -0.796000000
H    -1.390000000     4.963000000    -0.694000000
C     0.269000000     4.379000000    -2.053000000
O    -0.486000000     4.065000000    -3.147000000
C    -0.647000000     2.670000000    -3.410000000
C    -2.093000000     2.351000000    -3.594000000
C    -2.545000000     1.252000000    -4.341000000
H    -1.822000000     0.552000000    -4.753000000
C    -3.077000000     3.201000000    -2.916000000
H    -2.799000000     3.946000000    -2.175000000
O     0.091000000     2.238000000    -4.520000000
H    -0.177000000     2.220000000    -2.522000000
C     1.641000000     4.198000000    -2.129000000
C     2.286000000     3.892000000    -3.479000000
H     3.281000000     4.337000000    -3.416000000
H     1.784000000     4.320000000    -4.349000000
C     2.376000000     2.423000000    -3.614000000
C     3.470000000     1.699000000    -3.080000000
H     4.237000000     2.192000000    -2.489000000
C     1.357000000     1.711000000    -4.225000000
C     1.409000000     0.356000000    -4.294000000
H     0.608000000    -0.237000000    -4.727000000
C     2.510000000    -0.371000000    -3.780000000
O     2.367000000    -1.728000000    -3.840000000
C     2.222000000    -2.439000000    -2.589000000
C     1.180000000    -3.532000000    -2.694000000
C    -0.119000000    -3.212000000    -3.016000000
H    -0.399000000    -2.179000000    -3.208000000
C     1.482000000    -4.846000000    -2.296000000
H     2.524000000    -5.086000000    -2.101000000
O     3.507000000    -2.876000000    -2.013000000
H     1.819000000    -1.649000000    -1.939000000
C     3.579000000     0.306000000    -3.128000000
C     4.801000000    -0.455000000    -2.588000000
H     5.663000000     0.215000000    -2.584000000
H     4.991000000    -1.258000000    -3.303000000
C     4.667000000    -0.945000000    -1.151000000
C     3.986000000    -2.155000000    -0.914000000
C     3.916000000    -2.648000000     0.334000000
H     3.421000000    -3.607000000     0.466000000
C     4.304000000    -1.957000000     1.465000000
O     3.794000000    -2.255000000     2.678000000
C     2.539000000    -1.643000000     3.112000000
H     1.971000000    -1.231000000     2.265000000
C     1.677000000    -2.718000000     3.685000000
C     0.836000000    -2.440000000     4.761000000
H     0.965000000    -1.455000000     5.202000000
C     1.510000000    -3.906000000     3.014000000
H     2.300000000    -4.128000000     2.301000000
C     0.546000000    -4.805000000     3.388000000
O     0.555000000    -6.120000000     2.966000000
C    -0.227000000    -4.576000000     4.479000000
H    -1.004000000    -5.304000000     4.698000000
C    -0.169000000    -3.373000000     5.081000000
O    -1.131000000    -3.101000000     5.983000000
C    -1.492000000    -1.766000000     6.101000000
C    -2.487000000    -1.222000000     5.271000000
H    -2.817000000    -1.750000000     4.380000000
C    -0.877000000    -0.938000000     7.054000000
H    -0.140000000    -1.464000000     7.656000000
C    -1.292000000     0.342000000     7.259000000
H    -0.730000000     0.911000000     7.995000000
C    -2.289000000     0.891000000     6.449000000
H    -2.544000000     1.945000000     6.526000000
C    -2.910000000     0.128000000     5.457000000
O    -3.827000000     0.709000000     4.605000000
C    -3.475000000     1.874000000     3.868000000
C    -4.576000000     2.673000000     3.432000000
H    -5.578000000     2.448000000     3.788000000
C    -4.222000000     3.720000000     2.617000000
O    -5.332000000     4.372000000     2.165000000
C    -5.402000000     4.864000000     0.870000000
C    -5.362000000     3.977000000    -0.194000000
H    -5.597000000     2.934000000     0.002000000
C    -5.309000000     6.266000000     0.651000000
H    -5.257000000     6.967000000     1.481000000
C    -5.221000000     6.704000000    -0.704000000
H    -5.146000000     7.760000000    -0.954000000
C    -5.244000000     5.802000000    -1.760000000
H    -5.316000000     6.088000000    -2.806000000
C    -5.229000000     4.412000000    -1.479000000
O    -5.488000000     3.527000000    -2.463000000
C    -4.416000000     2.929000000    -3.174000000
C    -4.889000000     1.920000000    -4.048000000
H    -5.959000000     1.889000000    -4.237000000
C    -3.910000000     1.021000000    -4.571000000
O    -4.312000000     0.014000000    -5.473000000
C    -3.638000000    -1.242000000    -5.516000000
C    -3.471000000    -1.949000000    -4.327000000
H    -3.971000000    -1.700000000    -3.395000000
C    -3.104000000    -1.689000000    -6.717000000
H    -3.094000000    -0.990000000    -7.548000000
C    -2.402000000    -2.857000000    -6.772000000
H    -1.964000000    -3.226000000    -7.696000000
C    -2.171000000    -3.570000000    -5.589000000
H    -1.660000000    -4.528000000    -5.621000000
C    -2.634000000    -3.072000000    -4.377000000
O    -2.372000000    -3.703000000    -3.176000000
C    -1.105000000    -4.215000000    -2.921000000
C    -0.871000000    -5.524000000    -2.508000000
H    -1.679000000    -6.243000000    -2.400000000
C     0.492000000    -5.835000000    -2.143000000
O     0.680000000    -7.091000000    -1.604000000
C     1.283000000    -7.202000000    -0.389000000
C     2.228000000    -8.219000000    -0.114000000
H     2.554000000    -8.866000000    -0.924000000
C     2.830000000    -8.283000000     1.126000000
H     3.641000000    -8.967000000     1.360000000
C     2.214000000    -7.620000000     2.234000000
H     2.597000000    -7.670000000     3.250000000
C     1.205000000    -6.667000000     1.939000000
C     0.706000000    -6.464000000     0.668000000
H    -0.136000000    -5.789000000     0.542000000
C    -2.651000000     0.400000000    -0.375000000
H    -3.522000000     1.008000000    -0.602000000
C    -1.372000000     0.917000000    -0.315000000
H    -1.142000000     1.959000000    -0.520000000
C    -0.265000000     0.111000000    -0.217000000
C     1.112000000     0.696000000    -0.363000000
H     1.349000000     0.942000000    -1.400000000
H     1.235000000     1.682000000     0.089000000
H     1.863000000     0.134000000     0.197000000
C    -0.378000000    -1.261000000    -0.076000000
H     0.466000000    -1.946000000    -0.098000000
C    -1.641000000    -1.797000000     0.091000000
H    -1.731000000    -2.880000000     0.134000000
C    -2.774000000    -0.978000000    -0.065000000
C    -4.108000000    -1.727000000    -0.138000000
O    -4.224000000    -2.836000000     0.305000000
O    -4.910000000    -1.301000000    -0.886000000
O    -4.382000000    -4.214000000     5.273000000
H    -4.046000000    -5.051000000     5.595000000
H    -4.181000000    -4.221000000     4.337000000
O    -5.077000000    -6.194000000    -2.953000000
H    -4.677000000    -5.743000000    -2.209000000
H    -5.952000000    -5.814000000    -3.021000000
O    -3.420000000    -5.245000000    -0.654000000
H    -3.691000000    -4.457000000    -0.184000000
H    -2.623000000    -4.985000000    -1.117000000
O    -9.001000000    -1.493000000    -0.982000000
H    -9.484000000    -2.312000000    -1.095000000
H    -9.431000000    -1.061000000    -0.244000000
O    -4.858000000    -8.497000000    -0.640000000
H    -5.015000000    -7.560000000    -0.530000000
H    -5.076000000    -8.671000000    -1.556000000
O    -5.990000000    -2.089000000     4.124000000
H    -5.498000000    -2.172000000     4.941000000
H    -5.614000000    -2.756000000     3.549000000
O    -8.407000000    -4.603000000     1.883000000
H    -7.779000000    -4.153000000     1.318000000
H    -9.179000000    -4.036000000     1.880000000
O    -6.783000000    -3.169000000     0.562000000
H    -5.855000000    -2.979000000     0.420000000
H    -7.232000000    -2.358000000     0.325000000
O    -8.186000000    -7.340000000    -1.709000000
H    -7.699000000    -6.614000000    -1.319000000
H    -7.519000000    -7.996000000    -1.909000000
O    -9.636000000     0.222000000    -3.179000000
H    -9.710000000    -0.473000000    -2.525000000
H    -8.751000000     0.566000000    -3.064000000
O    -6.748000000    -6.066000000     0.019000000
H    -7.428000000    -6.221000000     0.675000000
H    -6.595000000    -5.122000000     0.050000000
O    -6.837000000    -0.153000000     2.406000000
H    -6.026000000     0.172000000     2.797000000
H    -6.942000000    -1.033000000     2.769000000
O    -4.406000000    -6.787000000     1.674000000
H    -3.927000000    -6.851000000     0.848000000
H    -5.268000000    -7.153000000     1.480000000
O    -6.836000000     1.004000000    -1.549000000
H    -6.257000000     1.684000000    -1.894000000
H    -6.245000000     0.310000000    -1.259000000
O    -7.013000000    -1.334000000    -5.699000000
H    -6.151000000    -0.954000000    -5.870000000
H    -7.012000000    -1.515000000    -4.759000000
O    -7.708000000    -4.488000000    -2.669000000
H    -7.152000000    -3.744000000    -2.439000000
H    -8.560000000    -4.279000000    -2.286000000
O    -6.652000000    -1.955000000    -2.632000000
H    -7.415000000    -1.735000000    -2.098000000
H    -5.915000000    -1.921000000    -2.022000000
O    -8.047000000     1.622000000     0.838000000
H    -7.586000000     1.066000000     1.467000000
H    -7.804000000     1.268000000    -0.017000000
O    -4.316000000    -4.195000000     2.678000000
H    -4.209000000    -3.687000000     1.874000000
H    -4.217000000    -5.106000000     2.400000000
