218
-1475.43222
C    -2.981000000     3.232000000     2.505000000
H    -3.011000000     3.944000000     1.684000000
C    -1.767000000     2.805000000     3.110000000
C    -1.849000000     1.907000000     4.191000000
H    -0.885000000     1.567000000     4.560000000
C    -0.384000000     3.225000000     2.454000000
O    -0.434000000     4.495000000     1.689000000
H    -0.151000000     2.337000000     1.848000000
O     0.703000000     3.384000000     3.382000000
C     1.912000000     2.790000000     3.004000000
C     2.216000000     1.517000000     3.597000000
H     1.662000000     1.053000000     4.408000000
C     3.300000000     0.801000000     3.063000000
O     3.503000000    -0.464000000     3.669000000
C     4.146000000     1.340000000     2.068000000
C     5.348000000     0.635000000     1.443000000
H     6.047000000     1.368000000     1.034000000
C     4.943000000    -0.374000000     0.422000000
C     5.017000000     0.057000000    -0.887000000
H     5.500000000     0.995000000    -1.149000000
H     5.848000000     0.114000000     2.262000000
C     3.914000000     2.634000000     1.611000000
H     4.640000000     3.078000000     0.935000000
C     2.763000000     3.367000000     2.069000000
C     2.455000000     4.693000000     1.472000000
H     3.433000000     5.151000000     1.309000000
H     1.986000000     5.341000000     2.215000000
C     1.583000000     4.537000000     0.317000000
C     2.101000000     4.604000000    -1.039000000
H     3.173000000     4.621000000    -1.223000000
C     0.166000000     4.456000000     0.510000000
C    -0.661000000     4.401000000    -0.627000000
H    -1.741000000     4.297000000    -0.566000000
C    -0.111000000     4.338000000    -1.911000000
O    -1.032000000     4.180000000    -2.913000000
C    -1.196000000     2.785000000    -3.341000000
C    -2.689000000     2.473000000    -3.468000000
C    -3.090000000     1.459000000    -4.306000000
H    -2.352000000     0.875000000    -4.850000000
C    -3.672000000     3.074000000    -2.649000000
H    -3.445000000     3.845000000    -1.917000000
O    -0.441000000     2.511000000    -4.525000000
H    -0.818000000     2.158000000    -2.520000000
C     1.231000000     4.421000000    -2.117000000
C     1.788000000     4.129000000    -3.464000000
H     2.801000000     4.531000000    -3.392000000
H     1.293000000     4.680000000    -4.267000000
C     1.873000000     2.628000000    -3.879000000
C     3.055000000     1.927000000    -3.578000000
H     3.832000000     2.533000000    -3.121000000
C     0.792000000     1.875000000    -4.360000000
C     0.879000000     0.508000000    -4.407000000
H     0.060000000    -0.095000000    -4.789000000
C     2.031000000    -0.232000000    -4.030000000
O     1.963000000    -1.598000000    -4.132000000
C     1.913000000    -2.229000000    -2.859000000
C     0.874000000    -3.396000000    -2.948000000
C    -0.358000000    -3.282000000    -3.615000000
H    -0.615000000    -2.305000000    -4.018000000
C     1.221000000    -4.594000000    -2.276000000
H     2.142000000    -4.674000000    -1.703000000
O     3.232000000    -2.716000000    -2.506000000
H     1.661000000    -1.490000000    -2.084000000
C     3.205000000     0.519000000    -3.685000000
C     4.468000000    -0.245000000    -3.336000000
H     5.277000000     0.488000000    -3.378000000
H     4.496000000    -1.056000000    -4.068000000
C     4.525000000    -0.794000000    -1.923000000
C     3.983000000    -2.047000000    -1.573000000
C     3.903000000    -2.476000000    -0.260000000
H     3.375000000    -3.405000000    -0.061000000
C     4.390000000    -1.595000000     0.709000000
O     4.314000000    -1.921000000     2.016000000
C     3.120000000    -1.430000000     2.767000000
H     2.516000000    -0.886000000     2.027000000
C     2.272000000    -2.525000000     3.421000000
C     1.519000000    -2.163000000     4.518000000
H     1.710000000    -1.250000000     5.076000000
C     2.159000000    -3.801000000     2.860000000
H     2.748000000    -4.073000000     1.988000000
C     1.253000000    -4.728000000     3.441000000
O     1.072000000    -6.001000000     2.901000000
C     0.516000000    -4.350000000     4.527000000
H     0.068000000    -5.152000000     5.109000000
C     0.651000000    -3.107000000     5.082000000
O     0.052000000    -2.892000000     6.322000000
C    -0.502000000    -1.772000000     6.701000000
C    -1.563000000    -1.237000000     6.051000000
H    -2.041000000    -1.742000000     5.215000000
C     0.007000000    -1.129000000     7.871000000
H     0.780000000    -1.552000000     8.507000000
C    -0.471000000     0.134000000     8.222000000
H    -0.112000000     0.647000000     9.111000000
C    -1.492000000     0.702000000     7.477000000
H    -1.790000000     1.704000000     7.775000000
C    -2.072000000     0.019000000     6.408000000
O    -3.165000000     0.578000000     5.808000000
C    -3.065000000     1.484000000     4.724000000
C    -4.238000000     1.892000000     4.119000000
H    -5.193000000     1.572000000     4.527000000
C    -4.182000000     2.798000000     3.057000000
O    -5.330000000     3.223000000     2.623000000
C    -5.446000000     4.005000000     1.501000000
C    -5.652000000     3.362000000     0.314000000
H    -5.766000000     2.281000000     0.319000000
C    -5.277000000     5.369000000     1.502000000
H    -5.116000000     5.789000000     2.492000000
C    -5.238000000     6.084000000     0.309000000
H    -5.111000000     7.163000000     0.362000000
C    -5.520000000     5.398000000    -0.879000000
H    -5.788000000     5.971000000    -1.763000000
C    -5.729000000     4.003000000    -0.907000000
O    -5.993000000     3.330000000    -2.019000000
C    -4.987000000     2.679000000    -2.724000000
C    -5.372000000     1.623000000    -3.550000000
H    -6.358000000     1.186000000    -3.407000000
C    -4.448000000     1.023000000    -4.351000000
O    -4.869000000    -0.089000000    -5.074000000
C    -4.007000000    -1.085000000    -5.422000000
C    -3.715000000    -2.096000000    -4.513000000
H    -4.160000000    -2.157000000    -3.523000000
C    -3.316000000    -0.933000000    -6.652000000
H    -3.553000000    -0.088000000    -7.293000000
C    -2.555000000    -2.029000000    -7.134000000
H    -2.081000000    -1.939000000    -8.108000000
C    -2.326000000    -3.073000000    -6.189000000
H    -1.571000000    -3.813000000    -6.445000000
C    -2.851000000    -3.089000000    -4.913000000
O    -2.593000000    -4.081000000    -4.038000000
C    -1.320000000    -4.327000000    -3.516000000
C    -1.017000000    -5.485000000    -2.746000000
H    -1.873000000    -6.144000000    -2.630000000
C     0.264000000    -5.629000000    -2.224000000
O     0.612000000    -6.811000000    -1.682000000
C     1.293000000    -7.014000000    -0.530000000
C     2.180000000    -8.091000000    -0.438000000
H     2.357000000    -8.614000000    -1.374000000
C     2.874000000    -8.319000000     0.751000000
H     3.617000000    -9.110000000     0.703000000
C     2.489000000    -7.618000000     1.887000000
H     2.945000000    -7.826000000     2.852000000
C     1.560000000    -6.548000000     1.785000000
C     0.886000000    -6.287000000     0.588000000
H     0.045000000    -5.600000000     0.553000000
C    -3.053000000    -0.191000000    -0.662000000
H    -3.934000000     0.185000000    -1.176000000
C    -1.919000000     0.550000000    -0.458000000
H    -1.826000000     1.613000000    -0.664000000
C    -0.725000000    -0.049000000    -0.201000000
C     0.614000000     0.735000000    -0.188000000
H     1.140000000     0.649000000    -1.141000000
H     0.422000000     1.798000000    -0.028000000
H     1.233000000     0.360000000     0.630000000
C    -0.764000000    -1.425000000    -0.060000000
H     0.180000000    -1.954000000     0.047000000
C    -1.886000000    -2.221000000    -0.130000000
H    -1.806000000    -3.299000000    -0.014000000
C    -3.106000000    -1.552000000    -0.482000000
C    -4.379000000    -2.309000000    -0.679000000
O    -4.386000000    -3.520000000    -0.576000000
O    -5.425000000    -1.760000000    -0.997000000
O    -6.083000000    -3.719000000     2.188000000
H    -5.312000000    -4.210000000     2.471000000
H    -5.971000000    -3.623000000     1.242000000
O    -3.771000000    -3.720000000     4.921000000
H    -3.790000000    -4.108000000     5.796000000
H    -3.516000000    -4.441000000     4.346000000
O    -6.115000000    -4.034000000    -6.817000000
H    -5.929000000    -4.394000000    -5.950000000
H    -5.517000000    -4.498000000    -7.403000000
O    -6.575000000    -7.758000000    -3.425000000
H    -6.405000000    -8.494000000    -4.012000000
H    -6.380000000    -6.982000000    -3.950000000
O    -3.022000000    -5.729000000     0.117000000
H    -3.178000000    -4.815000000    -0.121000000
H    -3.871000000    -6.156000000     0.000000000
O    -9.450000000    -1.443000000    -0.758000000
H    -9.673000000    -1.837000000    -1.602000000
H    -9.446000000    -2.178000000    -0.145000000
O    -5.094000000    -1.336000000     4.679000000
H    -4.606000000    -2.160000000     4.673000000
H    -4.425000000    -0.662000000     4.559000000
O    -6.701000000    -4.677000000    -0.962000000
H    -7.022000000    -4.379000000    -1.814000000
H    -5.911000000    -4.159000000    -0.810000000
O    -7.867000000    -5.086000000     3.590000000
H    -7.838000000    -5.966000000     3.215000000
H    -7.222000000    -4.590000000     3.085000000
O    -8.943000000    -5.735000000    -0.229000000
H    -8.037000000    -5.469000000    -0.380000000
H    -9.343000000    -4.985000000     0.211000000
O    -5.880000000    -7.116000000     0.424000000
H    -6.514000000    -7.465000000     1.051000000
H    -6.368000000    -6.455000000    -0.067000000
O    -7.044000000    -0.926000000     2.854000000
H    -6.355000000    -1.167000000     3.474000000
H    -7.202000000    -1.724000000     2.349000000
O    -1.891000000    -8.258000000     0.662000000
H    -1.907000000    -7.304000000     0.586000000
H    -1.516000000    -8.559000000    -0.166000000
O    -7.033000000     0.080000000    -0.422000000
H    -7.749000000    -0.540000000    -0.557000000
H    -6.245000000    -0.410000000    -0.658000000
O    -5.517000000    -5.469000000    -4.335000000
H    -4.631000000    -5.663000000    -4.642000000
H    -5.437000000    -4.623000000    -3.893000000
O    -6.794000000    -2.845000000    -3.091000000
H    -7.542000000    -2.273000000    -3.263000000
H    -6.373000000    -2.463000000    -2.321000000
O    -8.630000000     1.105000000     1.574000000
H    -8.227000000     0.462000000     2.157000000
H    -8.312000000     0.872000000     0.702000000
O    -3.531000000    -5.816000000     2.992000000
H    -3.480000000    -5.962000000     2.047000000
H    -2.961000000    -6.485000000     3.369000000
O    -4.329000000    -8.771000000    -2.034000000
H    -4.494000000    -9.227000000    -2.859000000
H    -5.019000000    -8.109000000    -1.984000000
