218
-1464.52657
C    -2.614000000     3.549000000     2.771000000
H    -2.741000000     4.211000000     1.918000000
C    -1.366000000     3.199000000     3.310000000
C    -1.347000000     2.440000000     4.530000000
H    -0.417000000     2.036000000     4.921000000
C    -0.064000000     3.538000000     2.523000000
O    -0.266000000     4.703000000     1.668000000
H     0.066000000     2.678000000     1.848000000
O     1.113000000     3.806000000     3.307000000
C     2.310000000     3.272000000     2.861000000
C     2.629000000     2.041000000     3.395000000
H     1.990000000     1.665000000     4.190000000
C     3.540000000     1.239000000     2.781000000
O     3.682000000    -0.012000000     3.291000000
C     4.332000000     1.676000000     1.709000000
C     5.394000000     0.796000000     1.157000000
H     6.184000000     1.321000000     0.615000000
C     4.915000000    -0.292000000     0.163000000
C     4.962000000     0.067000000    -1.191000000
H     5.415000000     1.025000000    -1.434000000
H     5.895000000     0.293000000     1.986000000
C     3.955000000     2.900000000     1.146000000
H     4.461000000     3.291000000     0.267000000
C     2.947000000     3.681000000     1.689000000
C     2.494000000     5.007000000     1.011000000
H     3.421000000     5.449000000     0.640000000
H     2.207000000     5.744000000     1.764000000
C     1.446000000     4.743000000    -0.027000000
C     1.815000000     4.553000000    -1.367000000
H     2.830000000     4.602000000    -1.753000000
C     0.103000000     4.657000000     0.314000000
C    -0.847000000     4.430000000    -0.687000000
H    -1.896000000     4.343000000    -0.415000000
C    -0.445000000     4.120000000    -1.978000000
O    -1.440000000     3.553000000    -2.777000000
C    -1.442000000     2.160000000    -3.046000000
C    -2.887000000     1.640000000    -3.046000000
C    -3.283000000     0.585000000    -3.874000000
H    -2.561000000     0.070000000    -4.502000000
C    -3.820000000     2.287000000    -2.174000000
H    -3.553000000     3.132000000    -1.545000000
O    -0.794000000     1.955000000    -4.343000000
H    -0.841000000     1.674000000    -2.264000000
C     0.901000000     4.079000000    -2.328000000
C     1.390000000     3.807000000    -3.710000000
H     2.283000000     4.388000000    -3.949000000
H     0.707000000     4.196000000    -4.468000000
C     1.616000000     2.294000000    -3.953000000
C     2.884000000     1.693000000    -3.756000000
H     3.660000000     2.331000000    -3.340000000
C     0.478000000     1.534000000    -4.303000000
C     0.658000000     0.164000000    -4.583000000
H    -0.193000000    -0.444000000    -4.880000000
C     1.847000000    -0.452000000    -4.317000000
O     1.862000000    -1.845000000    -4.332000000
C     1.851000000    -2.595000000    -3.098000000
C     0.908000000    -3.761000000    -3.114000000
C    -0.272000000    -3.745000000    -3.879000000
H    -0.506000000    -2.876000000    -4.489000000
C     1.191000000    -4.892000000    -2.335000000
H     2.063000000    -4.953000000    -1.689000000
O     3.193000000    -2.877000000    -2.696000000
H     1.439000000    -1.944000000    -2.314000000
C     2.993000000     0.335000000    -3.973000000
C     4.302000000    -0.317000000    -3.634000000
H     5.133000000     0.337000000    -3.908000000
H     4.277000000    -1.172000000    -4.313000000
C     4.349000000    -0.768000000    -2.160000000
C     3.710000000    -1.976000000    -1.739000000
C     3.815000000    -2.302000000    -0.392000000
H     3.317000000    -3.212000000    -0.067000000
C     4.368000000    -1.542000000     0.550000000
O     4.190000000    -1.886000000     1.910000000
C     3.133000000    -1.116000000     2.597000000
H     2.411000000    -0.760000000     1.847000000
C     2.211000000    -2.065000000     3.474000000
C     1.734000000    -1.725000000     4.679000000
H     2.019000000    -0.814000000     5.200000000
C     1.753000000    -3.242000000     2.861000000
H     2.149000000    -3.472000000     1.875000000
C     0.941000000    -4.147000000     3.564000000
O     0.600000000    -5.398000000     2.954000000
C     0.477000000    -3.775000000     4.855000000
H    -0.186000000    -4.414000000     5.432000000
C     1.011000000    -2.602000000     5.412000000
O     0.723000000    -2.295000000     6.743000000
C     0.170000000    -1.094000000     7.147000000
C    -0.837000000    -0.506000000     6.415000000
H    -1.193000000    -1.043000000     5.540000000
C     0.671000000    -0.478000000     8.305000000
H     1.404000000    -0.899000000     8.988000000
C    -0.045000000     0.622000000     8.793000000
H     0.095000000     1.032000000     9.789000000
C    -1.024000000     1.255000000     7.998000000
H    -1.611000000     2.133000000     8.255000000
C    -1.423000000     0.719000000     6.783000000
O    -2.542000000     1.134000000     6.184000000
C    -2.567000000     1.987000000     5.104000000
C    -3.771000000     2.288000000     4.466000000
H    -4.671000000     1.775000000     4.795000000
C    -3.835000000     3.076000000     3.328000000
O    -5.094000000     3.528000000     3.024000000
C    -5.441000000     3.807000000     1.677000000
C    -5.629000000     2.812000000     0.749000000
H    -5.491000000     1.751000000     0.943000000
C    -5.766000000     5.159000000     1.388000000
H    -5.562000000     5.872000000     2.183000000
C    -6.324000000     5.596000000     0.183000000
H    -6.576000000     6.613000000    -0.105000000
C    -6.439000000     4.562000000    -0.784000000
H    -6.808000000     4.857000000    -1.763000000
C    -6.076000000     3.247000000    -0.530000000
O    -6.298000000     2.409000000    -1.637000000
C    -5.174000000     1.861000000    -2.258000000
C    -5.492000000     0.802000000    -3.157000000
H    -6.518000000     0.458000000    -3.265000000
C    -4.603000000     0.158000000    -3.934000000
O    -4.963000000    -0.904000000    -4.759000000
C    -4.080000000    -1.834000000    -5.393000000
C    -3.671000000    -2.956000000    -4.651000000
H    -4.172000000    -3.279000000    -3.742000000
C    -3.502000000    -1.536000000    -6.641000000
H    -3.866000000    -0.620000000    -7.100000000
C    -2.513000000    -2.341000000    -7.180000000
H    -2.079000000    -2.036000000    -8.129000000
C    -2.167000000    -3.495000000    -6.541000000
H    -1.466000000    -4.251000000    -6.886000000
C    -2.767000000    -3.854000000    -5.322000000
O    -2.307000000    -4.863000000    -4.638000000
C    -1.133000000    -4.849000000    -3.888000000
C    -0.877000000    -5.949000000    -3.028000000
H    -1.506000000    -6.831000000    -2.932000000
C     0.327000000    -5.965000000    -2.290000000
O     0.617000000    -7.073000000    -1.533000000
C     1.233000000    -6.923000000    -0.311000000
C     2.600000000    -7.068000000    -0.276000000
H     3.101000000    -7.512000000    -1.132000000
C     3.299000000    -6.945000000     0.929000000
H     4.356000000    -7.190000000     0.995000000
C     2.642000000    -6.340000000     1.993000000
H     3.084000000    -6.231000000     2.981000000
C     1.297000000    -5.866000000     1.865000000
C     0.566000000    -6.227000000     0.712000000
H    -0.520000000    -6.201000000     0.661000000
C    -1.423000000    -2.486000000    -1.047000000
H    -1.759000000    -2.951000000    -1.970000000
C    -0.789000000    -1.276000000    -1.165000000
H    -0.592000000    -0.796000000    -2.121000000
C    -0.266000000    -0.646000000     0.002000000
C     0.367000000     0.724000000    -0.048000000
H     1.180000000     0.733000000     0.681000000
H     0.796000000     0.801000000    -1.049000000
H    -0.359000000     1.534000000     0.052000000
C    -0.409000000    -1.246000000     1.239000000
H     0.004000000    -0.780000000     2.130000000
C    -1.038000000    -2.484000000     1.271000000
H    -1.121000000    -2.993000000     2.228000000
C    -1.556000000    -3.131000000     0.173000000
C    -2.405000000    -4.345000000     0.331000000
O    -2.762000000    -4.697000000     1.448000000
O    -2.958000000    -4.833000000    -0.651000000
O    -4.071000000    -2.768000000     2.772000000
H    -3.428000000    -3.375000000     2.404000000
H    -4.908000000    -3.223000000     2.681000000
O    -0.350000000   -10.041000000     2.545000000
H    -0.243000000    -9.996000000     1.595000000
H    -0.974000000   -10.753000000     2.683000000
O    -5.841000000    -9.691000000    -1.904000000
H    -5.464000000    -8.818000000    -2.006000000
H    -6.386000000    -9.626000000    -1.119000000
O    -2.769000000    -3.514000000     6.524000000
H    -2.372000000    -2.679000000     6.280000000
H    -3.131000000    -3.361000000     7.397000000
O    -1.937000000    -6.767000000     3.039000000
H    -1.960000000    -5.932000000     2.572000000
H    -1.005000000    -6.966000000     3.128000000
O    -8.367000000    -5.654000000    -1.270000000
H    -7.434000000    -5.494000000    -1.413000000
H    -8.707000000    -4.818000000    -0.950000000
O    -3.979000000    -8.181000000    -3.957000000
H    -4.752000000    -7.878000000    -4.433000000
H    -4.051000000    -7.767000000    -3.096000000
O    -3.769000000    -8.714000000     2.610000000
H    -3.362000000    -9.305000000     1.976000000
H    -3.062000000    -8.126000000     2.877000000
O    -5.967000000    -0.874000000     3.510000000
H    -6.021000000    -1.247000000     4.390000000
H    -5.318000000    -1.415000000     3.060000000
O    -6.580000000    -3.936000000     1.613000000
H    -6.116000000    -4.773000000     1.626000000
H    -6.717000000    -3.752000000     0.683000000
O     0.164000000    -9.609000000    -0.797000000
H     1.002000000    -9.971000000    -0.509000000
H     0.383000000    -8.743000000    -1.142000000
O    -6.876000000    -1.148000000    -0.885000000
H    -5.991000000    -1.308000000    -0.556000000
H    -6.761000000    -0.489000000    -1.570000000
O    -5.076000000    -6.269000000     1.379000000
H    -4.332000000    -5.734000000     1.104000000
H    -4.680000000    -7.054000000     1.758000000
O    -5.597000000    -4.099000000    -1.425000000
H    -4.803000000    -3.584000000    -1.280000000
H    -5.373000000    -4.686000000    -2.146000000
O    -4.273000000    -6.965000000    -1.508000000
H    -4.456000000    -7.314000000    -0.636000000
H    -3.719000000    -6.200000000    -1.347000000
O    -4.276000000    -1.204000000     0.024000000
H    -4.426000000    -1.371000000     0.954000000
H    -3.336000000    -1.342000000    -0.095000000
O    -3.503000000    -5.990000000     5.560000000
H    -3.243000000    -5.165000000     5.971000000
H    -3.109000000    -5.958000000     4.688000000
O    -1.523000000    -8.596000000    -4.629000000
H    -2.245000000    -9.007000000    -4.154000000
H    -1.841000000    -7.716000000    -4.833000000
O    -7.961000000    -7.164000000     2.417000000
H    -7.898000000    -7.560000000     3.287000000
H    -7.066000000    -7.190000000     2.077000000
