218
-1493.43175
C    -3.215000000     3.241000000     2.559000000
H    -3.370000000     3.984000000     1.781000000
C    -1.987000000     3.088000000     3.094000000
C    -1.838000000     2.264000000     4.239000000
H    -0.904000000     2.082000000     4.764000000
C    -0.731000000     3.447000000     2.375000000
O    -0.911000000     4.569000000     1.428000000
H    -0.316000000     2.599000000     1.810000000
O     0.365000000     3.722000000     3.262000000
C     1.613000000     3.172000000     2.841000000
C     2.019000000     1.997000000     3.513000000
H     1.337000000     1.465000000     4.172000000
C     3.206000000     1.361000000     3.110000000
O     3.445000000     0.136000000     3.725000000
C     4.040000000     1.846000000     2.113000000
C     5.223000000     1.028000000     1.640000000
H     6.062000000     1.667000000     1.355000000
C     4.746000000     0.089000000     0.577000000
C     4.849000000     0.487000000    -0.724000000
H     5.261000000     1.465000000    -0.960000000
H     5.568000000     0.465000000     2.510000000
C     3.616000000     3.006000000     1.463000000
H     4.208000000     3.437000000     0.660000000
C     2.468000000     3.666000000     1.835000000
C     2.036000000     4.886000000     1.122000000
H     2.897000000     5.436000000     0.735000000
H     1.549000000     5.567000000     1.823000000
C     1.052000000     4.603000000    -0.041000000
C     1.558000000     4.422000000    -1.290000000
H     2.622000000     4.509000000    -1.495000000
C    -0.338000000     4.465000000     0.178000000
C    -1.222000000     4.206000000    -0.858000000
H    -2.261000000     4.007000000    -0.606000000
C    -0.734000000     4.106000000    -2.107000000
O    -1.577000000     3.596000000    -3.085000000
C    -1.592000000     2.160000000    -3.266000000
C    -2.963000000     1.629000000    -3.544000000
C    -3.033000000     0.389000000    -4.154000000
H    -2.169000000    -0.146000000    -4.539000000
C    -4.038000000     2.199000000    -2.925000000
H    -3.975000000     3.222000000    -2.562000000
O    -0.752000000     1.925000000    -4.398000000
H    -1.311000000     1.675000000    -2.320000000
C     0.664000000     4.159000000    -2.335000000
C     1.226000000     3.898000000    -3.725000000
H     2.112000000     4.521000000    -3.865000000
H     0.588000000     4.271000000    -4.529000000
C     1.529000000     2.400000000    -3.851000000
C     2.846000000     1.956000000    -3.658000000
H     3.691000000     2.615000000    -3.473000000
C     0.530000000     1.527000000    -4.226000000
C     0.796000000     0.183000000    -4.347000000
H    -0.001000000    -0.493000000    -4.644000000
C     2.072000000    -0.284000000    -3.998000000
O     2.351000000    -1.641000000    -4.093000000
C     2.354000000    -2.384000000    -2.901000000
C     1.594000000    -3.675000000    -3.065000000
C     0.823000000    -3.931000000    -4.186000000
H     0.820000000    -3.187000000    -4.979000000
C     1.446000000    -4.485000000    -1.976000000
H     1.970000000    -4.346000000    -1.034000000
O     3.719000000    -2.564000000    -2.394000000
H     1.717000000    -1.831000000    -2.194000000
C     3.054000000     0.619000000    -3.619000000
C     4.520000000     0.181000000    -3.225000000
H     5.241000000     0.995000000    -3.313000000
H     4.805000000    -0.540000000    -3.995000000
C     4.531000000    -0.356000000    -1.786000000
C     4.076000000    -1.649000000    -1.420000000
C     3.914000000    -2.106000000    -0.091000000
H     3.616000000    -3.115000000     0.183000000
C     4.222000000    -1.160000000     0.896000000
O     4.086000000    -1.556000000     2.203000000
C     3.049000000    -1.007000000     3.040000000
H     2.277000000    -0.706000000     2.316000000
C     2.351000000    -1.985000000     3.962000000
C     1.783000000    -1.667000000     5.188000000
H     1.915000000    -0.662000000     5.583000000
C     2.134000000    -3.256000000     3.442000000
H     2.501000000    -3.475000000     2.443000000
C     1.429000000    -4.217000000     4.180000000
O     1.102000000    -5.430000000     3.606000000
C     0.898000000    -3.909000000     5.458000000
H     0.327000000    -4.629000000     6.039000000
C     1.140000000    -2.610000000     5.979000000
O     0.597000000    -2.335000000     7.275000000
C    -0.050000000    -1.153000000     7.344000000
C    -1.065000000    -0.850000000     6.445000000
H    -1.438000000    -1.679000000     5.849000000
C     0.426000000    -0.119000000     8.184000000
H     1.301000000    -0.303000000     8.802000000
C    -0.356000000     1.077000000     8.287000000
H    -0.219000000     1.783000000     9.102000000
C    -1.482000000     1.236000000     7.476000000
H    -2.073000000     2.140000000     7.602000000
C    -1.695000000     0.362000000     6.424000000
O    -2.815000000     0.583000000     5.613000000
C    -2.950000000     1.640000000     4.735000000
C    -4.154000000     1.660000000     3.991000000
H    -4.972000000     1.021000000     4.314000000
C    -4.368000000     2.577000000     2.995000000
O    -5.533000000     2.582000000     2.212000000
C    -5.748000000     3.339000000     1.002000000
C    -5.809000000     2.495000000    -0.103000000
H    -5.716000000     1.413000000    -0.051000000
C    -6.092000000     4.656000000     0.914000000
H    -5.876000000     5.287000000     1.773000000
C    -6.473000000     5.229000000    -0.311000000
H    -6.761000000     6.277000000    -0.328000000
C    -6.588000000     4.349000000    -1.410000000
H    -6.999000000     4.728000000    -2.342000000
C    -6.163000000     3.027000000    -1.343000000
O    -6.310000000     2.211000000    -2.410000000
C    -5.230000000     1.591000000    -2.931000000
C    -5.361000000     0.338000000    -3.466000000
H    -6.268000000    -0.251000000    -3.363000000
C    -4.281000000    -0.266000000    -4.050000000
O    -4.392000000    -1.606000000    -4.498000000
C    -3.477000000    -2.242000000    -5.315000000
C    -2.661000000    -3.302000000    -4.852000000
H    -2.725000000    -3.556000000    -3.797000000
C    -3.371000000    -1.868000000    -6.645000000
H    -4.009000000    -1.052000000    -6.974000000
C    -2.530000000    -2.500000000    -7.535000000
H    -2.740000000    -2.433000000    -8.599000000
C    -1.651000000    -3.494000000    -7.040000000
H    -1.080000000    -4.149000000    -7.692000000
C    -1.698000000    -3.838000000    -5.653000000
O    -1.068000000    -4.990000000    -5.213000000
C    -0.156000000    -4.882000000    -4.160000000
C    -0.168000000    -5.842000000    -3.182000000
H    -0.831000000    -6.703000000    -3.181000000
C     0.651000000    -5.655000000    -2.064000000
O     0.649000000    -6.555000000    -1.032000000
C     1.472000000    -6.467000000     0.106000000
C     2.859000000    -6.428000000    -0.076000000
H     3.288000000    -6.508000000    -1.072000000
C     3.667000000    -6.147000000     1.046000000
H     4.746000000    -6.084000000     0.925000000
C     3.134000000    -5.996000000     2.335000000
H     3.791000000    -5.866000000     3.191000000
C     1.762000000    -5.891000000     2.521000000
C     0.935000000    -6.139000000     1.372000000
H    -0.140000000    -6.006000000     1.462000000
C    -1.013000000    -2.254000000    -0.289000000
H    -1.312000000    -3.071000000    -0.940000000
C    -0.318000000    -1.162000000    -0.693000000
H    -0.068000000    -0.925000000    -1.723000000
C     0.215000000    -0.294000000     0.200000000
C     1.060000000     0.801000000    -0.309000000
H     0.473000000     1.672000000    -0.607000000
H     1.709000000     1.025000000     0.541000000
H     1.838000000     0.527000000    -1.024000000
C    -0.029000000    -0.410000000     1.532000000
H     0.391000000     0.313000000     2.226000000
C    -0.765000000    -1.483000000     2.003000000
H    -0.863000000    -1.616000000     3.077000000
C    -1.217000000    -2.476000000     1.086000000
C    -1.926000000    -3.709000000     1.465000000
O    -2.474000000    -3.658000000     2.537000000
O    -1.925000000    -4.760000000     0.765000000
O    -3.751000000    -1.543000000     3.608000000
H    -3.360000000    -1.469000000     4.479000000
H    -3.349000000    -2.325000000     3.231000000
O    -1.866000000    -9.240000000     1.780000000
H    -1.445000000    -8.984000000     2.601000000
H    -2.406000000    -8.487000000     1.543000000
O    -5.451000000    -6.220000000     4.458000000
H    -6.024000000    -6.819000000     3.978000000
H    -5.760000000    -6.267000000     5.363000000
O    -1.800000000    -5.302000000     4.404000000
H    -2.299000000    -4.656000000     3.905000000
H    -0.905000000    -5.219000000     4.076000000
O    -3.604000000    -6.767000000    -3.576000000
H    -4.187000000    -7.300000000    -3.035000000
H    -3.400000000    -6.008000000    -3.030000000
O    -1.050000000    -8.012000000     4.012000000
H    -0.375000000    -7.852000000     4.671000000
H    -1.440000000    -7.152000000     3.854000000
O    -5.757000000    -7.791000000     1.183000000
H    -4.861000000    -7.509000000     1.366000000
H    -5.731000000    -8.744000000     1.268000000
O    -6.665000000    -5.932000000    -0.820000000
H    -6.492000000    -6.533000000    -0.095000000
H    -5.816000000    -5.825000000    -1.250000000
O    -7.585000000    -3.325000000    -0.433000000
H    -7.416000000    -4.240000000    -0.657000000
H    -6.715000000    -2.945000000    -0.310000000
O    -3.377000000    -6.675000000     2.100000000
H    -2.710000000    -6.007000000     1.941000000
H    -3.838000000    -6.371000000     2.883000000
O    -3.813000000    -4.934000000    -1.318000000
H    -3.956000000    -4.001000000    -1.480000000
H    -3.193000000    -4.958000000    -0.589000000
O    -6.770000000    -1.126000000     3.332000000
H    -6.087000000    -1.766000000     3.132000000
H    -7.576000000    -1.526000000     3.005000000
O    -3.184000000    -6.259000000     6.550000000
H    -2.774000000    -5.927000000     5.751000000
H    -3.408000000    -7.167000000     6.345000000
O    -5.212000000    -2.226000000     1.186000000
H    -5.601000000    -2.822000000     1.826000000
H    -4.307000000    -2.117000000     1.479000000
O    -2.137000000    -7.500000000    -0.565000000
H    -1.207000000    -7.277000000    -0.571000000
H    -2.554000000    -6.776000000    -0.097000000
O    -4.707000000    -2.446000000    -1.406000000
H    -4.620000000    -1.546000000    -1.718000000
H    -4.815000000    -2.362000000    -0.459000000
O    -5.350000000    -3.798000000     6.967000000
H    -5.066000000    -4.318000000     6.216000000
H    -6.137000000    -3.347000000     6.662000000
O    -3.196000000     0.080000000     0.625000000
H    -2.247000000    -0.038000000     0.589000000
H    -3.373000000     0.323000000     1.534000000
O    -6.408000000    -4.001000000     3.345000000
H    -7.152000000    -4.541000000     3.078000000
H    -5.798000000    -4.617000000     3.749000000
