218
-1470.01005
C    -3.664000000     2.905000000     3.104000000
H    -3.969000000     3.487000000     2.237000000
C    -2.287000000     2.831000000     3.450000000
C    -1.981000000     2.000000000     4.501000000
H    -0.970000000     1.832000000     4.862000000
C    -1.358000000     3.402000000     2.480000000
O    -1.832000000     4.583000000     1.791000000
H    -1.100000000     2.595000000     1.778000000
O    -0.167000000     3.748000000     3.181000000
C     1.098000000     3.440000000     2.762000000
C     1.744000000     2.304000000     3.193000000
H     1.353000000     1.721000000     4.022000000
C     2.969000000     1.887000000     2.666000000
O     3.551000000     0.747000000     3.148000000
C     3.601000000     2.666000000     1.704000000
C     4.942000000     2.260000000     1.194000000
H     5.456000000     3.191000000     0.945000000
C     4.748000000     1.253000000     0.047000000
C     4.670000000     1.741000000    -1.282000000
H     4.577000000     2.808000000    -1.470000000
H     5.551000000     1.732000000     1.930000000
C     2.920000000     3.760000000     1.165000000
H     3.399000000     4.324000000     0.369000000
C     1.667000000     4.132000000     1.680000000
C     0.954000000     5.305000000     1.116000000
H     1.645000000     5.965000000     0.587000000
H     0.547000000     6.012000000     1.843000000
C    -0.111000000     5.028000000     0.052000000
C     0.264000000     4.905000000    -1.287000000
H     1.278000000     5.206000000    -1.535000000
C    -1.438000000     4.709000000     0.400000000
C    -2.302000000     4.142000000    -0.530000000
H    -3.232000000     3.791000000    -0.090000000
C    -1.826000000     3.960000000    -1.850000000
O    -2.654000000     3.180000000    -2.710000000
C    -2.147000000     1.824000000    -2.910000000
C    -3.264000000     0.825000000    -2.677000000
C    -3.308000000    -0.380000000    -3.408000000
H    -2.410000000    -0.734000000    -3.908000000
C    -4.319000000     1.099000000    -1.766000000
H    -4.218000000     1.872000000    -1.008000000
O    -1.565000000     1.796000000    -4.280000000
H    -1.302000000     1.618000000    -2.236000000
C    -0.540000000     4.311000000    -2.242000000
C     0.005000000     4.231000000    -3.649000000
H     0.711000000     5.034000000    -3.868000000
H    -0.774000000     4.535000000    -4.352000000
C     0.628000000     2.882000000    -3.883000000
C     2.040000000     2.744000000    -3.832000000
H     2.655000000     3.579000000    -3.506000000
C    -0.182000000     1.764000000    -4.299000000
C     0.462000000     0.587000000    -4.610000000
H    -0.109000000    -0.308000000    -4.841000000
C     1.854000000     0.455000000    -4.443000000
O     2.280000000    -0.846000000    -4.520000000
C     2.780000000    -1.537000000    -3.320000000
C     2.263000000    -3.053000000    -3.380000000
C     1.095000000    -3.397000000    -4.098000000
H     0.553000000    -2.676000000    -4.704000000
C     2.927000000    -4.074000000    -2.632000000
H     3.665000000    -3.696000000    -1.930000000
O     4.232000000    -1.479000000    -3.144000000
H     2.280000000    -1.205000000    -2.398000000
C     2.637000000     1.517000000    -4.028000000
C     4.116000000     1.373000000    -3.761000000
H     4.508000000     2.380000000    -3.922000000
H     4.606000000     0.785000000    -4.539000000
C     4.458000000     0.848000000    -2.365000000
C     4.526000000    -0.575000000    -2.106000000
C     4.693000000    -1.086000000    -0.766000000
H     4.605000000    -2.123000000    -0.451000000
C     4.715000000    -0.148000000     0.262000000
O     4.591000000    -0.670000000     1.514000000
C     3.406000000    -0.432000000     2.299000000
H     2.702000000    -0.141000000     1.506000000
C     2.878000000    -1.652000000     3.050000000
C     2.198000000    -1.502000000     4.264000000
H     2.202000000    -0.523000000     4.737000000
C     2.875000000    -2.884000000     2.505000000
H     3.467000000    -3.012000000     1.602000000
C     2.359000000    -4.002000000     3.188000000
O     2.280000000    -5.288000000     2.685000000
C     1.796000000    -3.895000000     4.494000000
H     1.348000000    -4.791000000     4.917000000
C     1.782000000    -2.606000000     4.973000000
O     1.246000000    -2.343000000     6.203000000
C     0.548000000    -1.207000000     6.652000000
C    -0.680000000    -0.791000000     6.200000000
H    -1.294000000    -1.509000000     5.663000000
C     1.209000000    -0.465000000     7.589000000
H     2.175000000    -0.738000000     8.006000000
C     0.595000000     0.587000000     8.292000000
H     1.112000000     1.049000000     9.130000000
C    -0.678000000     1.051000000     7.811000000
H    -1.255000000     1.780000000     8.374000000
C    -1.294000000     0.336000000     6.752000000
O    -2.658000000     0.657000000     6.389000000
C    -2.933000000     1.386000000     5.207000000
C    -4.277000000     1.540000000     4.940000000
H    -5.014000000     1.273000000     5.693000000
C    -4.667000000     2.304000000     3.891000000
O    -6.012000000     2.380000000     3.550000000
C    -6.505000000     2.430000000     2.254000000
C    -6.217000000     1.404000000     1.365000000
H    -5.572000000     0.573000000     1.641000000
C    -7.258000000     3.552000000     1.864000000
H    -7.457000000     4.362000000     2.562000000
C    -7.807000000     3.597000000     0.578000000
H    -8.487000000     4.408000000     0.328000000
C    -7.492000000     2.649000000    -0.379000000
H    -7.954000000     2.641000000    -1.363000000
C    -6.623000000     1.651000000    -0.015000000
O    -6.526000000     0.583000000    -0.903000000
C    -5.443000000     0.294000000    -1.712000000
C    -5.479000000    -0.823000000    -2.543000000
H    -6.270000000    -1.560000000    -2.659000000
C    -4.346000000    -1.262000000    -3.273000000
O    -4.418000000    -2.433000000    -4.001000000
C    -3.431000000    -2.843000000    -4.832000000
C    -2.353000000    -3.650000000    -4.425000000
H    -2.367000000    -3.859000000    -3.358000000
C    -3.647000000    -2.557000000    -6.176000000
H    -4.485000000    -1.967000000    -6.538000000
C    -2.899000000    -3.280000000    -7.074000000
H    -3.130000000    -3.212000000    -8.134000000
C    -1.898000000    -4.172000000    -6.713000000
H    -1.430000000    -4.733000000    -7.518000000
C    -1.546000000    -4.306000000    -5.355000000
O    -0.567000000    -5.151000000    -4.860000000
C     0.591000000    -4.725000000    -4.129000000
C     1.309000000    -5.764000000    -3.528000000
H     0.986000000    -6.799000000    -3.602000000
C     2.400000000    -5.450000000    -2.707000000
O     3.021000000    -6.389000000    -1.991000000
C     3.423000000    -6.294000000    -0.682000000
C     4.447000000    -7.158000000    -0.316000000
H     4.990000000    -7.763000000    -1.037000000
C     4.906000000    -7.127000000     1.023000000
H     5.717000000    -7.814000000     1.252000000
C     4.244000000    -6.405000000     1.960000000
H     4.653000000    -6.541000000     2.958000000
C     3.130000000    -5.689000000     1.611000000
C     2.703000000    -5.605000000     0.322000000
H     1.869000000    -4.937000000     0.121000000
C    -0.200000000    -2.485000000    -0.355000000
H    -0.319000000    -3.349000000    -1.003000000
C     0.068000000    -1.140000000    -0.836000000
H     0.179000000    -1.086000000    -1.916000000
C     0.227000000    -0.093000000     0.073000000
C     0.788000000     1.214000000    -0.474000000
H     1.571000000     1.600000000     0.181000000
H     1.139000000     1.128000000    -1.504000000
H    -0.109000000     1.837000000    -0.439000000
C    -0.043000000    -0.270000000     1.420000000
H     0.126000000     0.562000000     2.098000000
C    -0.459000000    -1.545000000     1.891000000
H    -0.514000000    -1.752000000     2.957000000
C    -0.529000000    -2.617000000     0.975000000
C    -0.875000000    -4.039000000     1.452000000
O    -1.417000000    -4.102000000     2.525000000
O    -0.684000000    -5.074000000     0.789000000
O    -3.930000000    -3.179000000     2.666000000
H    -4.189000000    -3.374000000     3.567000000
H    -3.058000000    -3.564000000     2.579000000
O    -3.955000000    -6.174000000     4.687000000
H    -3.697000000    -6.090000000     3.769000000
H    -3.333000000    -6.801000000     5.055000000
O    -1.011000000    -5.873000000     4.466000000
H    -1.089000000    -5.249000000     3.745000000
H    -1.290000000    -5.382000000     5.239000000
O    -3.472000000    -9.044000000    -1.653000000
H    -4.308000000    -9.482000000    -1.809000000
H    -3.575000000    -8.630000000    -0.795000000
O    -1.915000000    -7.402000000    -3.063000000
H    -2.570000000    -8.007000000    -2.713000000
H    -1.984000000    -6.627000000    -2.506000000
O     0.880000000    -7.856000000     4.628000000
H     1.509000000    -7.904000000     3.908000000
H     0.342000000    -7.090000000     4.426000000
O    -4.266000000    -8.733000000     0.939000000
H    -3.803000000    -7.943000000     1.217000000
H    -4.885000000    -8.910000000     1.647000000
O    -5.794000000    -2.757000000     5.059000000
H    -6.023000000    -2.079000000     4.423000000
H    -5.624000000    -2.277000000     5.870000000
O    -6.212000000    -5.876000000     1.103000000
H    -6.016000000    -6.759000000     1.414000000
H    -6.505000000    -5.406000000     1.884000000
O    -0.252000000    -9.791000000    -1.356000000
H    -0.154000000    -8.843000000    -1.272000000
H    -0.871000000    -9.905000000    -2.078000000
O    -2.711000000    -6.845000000     2.121000000
H    -1.940000000    -7.148000000     1.641000000
H    -2.542000000    -5.917000000     2.284000000
O    -5.842000000    -7.998000000     3.257000000
H    -5.295000000    -7.562000000     3.910000000
H    -6.367000000    -8.620000000     3.762000000
O    -2.037000000    -5.557000000    -1.390000000
H    -2.729000000    -4.943000000    -1.145000000
H    -1.414000000    -5.518000000    -0.665000000
O    -2.116000000    -8.167000000     5.738000000
H    -1.507000000    -7.518000000     5.387000000
H    -1.836000000    -8.995000000     5.348000000
O    -6.893000000    -4.829000000     3.638000000
H    -6.526000000    -4.014000000     3.981000000
H    -6.800000000    -5.455000000     4.356000000
O     0.001000000    -7.569000000     0.775000000
H    -0.045000000    -6.615000000     0.847000000
H     0.938000000    -7.764000000     0.770000000
O    -5.576000000    -4.705000000    -1.327000000
H    -4.734000000    -4.308000000    -1.104000000
H    -5.693000000    -5.398000000    -0.677000000
O    -4.819000000    -4.692000000     7.310000000
H    -4.688000000    -4.866000000     6.378000000
H    -5.001000000    -3.753000000     7.355000000
O    -3.446000000    -3.170000000    -0.414000000
H    -3.505000000    -2.260000000    -0.703000000
H    -3.700000000    -3.145000000     0.509000000
