218
-1464.41920
C    -2.384000000     2.105000000     3.464000000
H    -2.675000000     2.543000000     2.512000000
C    -1.099000000     2.268000000     3.968000000
C    -0.710000000     1.583000000     5.137000000
H     0.319000000     1.500000000     5.476000000
C    -0.038000000     2.982000000     3.146000000
O    -0.504000000     4.166000000     2.541000000
H     0.333000000     2.366000000     2.314000000
O     1.187000000     3.235000000     3.994000000
C     2.331000000     2.771000000     3.390000000
C     2.804000000     1.521000000     3.672000000
H     2.422000000     0.981000000     4.534000000
C     3.742000000     0.910000000     2.876000000
O     3.936000000    -0.370000000     3.104000000
C     4.270000000     1.526000000     1.756000000
C     5.403000000     0.840000000     0.976000000
H     6.071000000     1.631000000     0.628000000
C     4.890000000     0.025000000    -0.192000000
C     4.824000000     0.646000000    -1.469000000
H     5.128000000     1.681000000    -1.604000000
H     6.057000000     0.218000000     1.592000000
C     3.768000000     2.811000000     1.364000000
H     4.043000000     3.352000000     0.462000000
C     2.856000000     3.437000000     2.236000000
C     2.315000000     4.765000000     1.840000000
H     3.147000000     5.403000000     1.534000000
H     1.989000000     5.281000000     2.745000000
C     1.168000000     4.662000000     0.858000000
C     1.453000000     4.587000000    -0.530000000
H     2.477000000     4.737000000    -0.862000000
C    -0.130000000     4.437000000     1.237000000
C    -1.197000000     4.169000000     0.363000000
H    -2.110000000     4.029000000     0.936000000
C    -0.869000000     4.191000000    -1.044000000
O    -1.899000000     3.865000000    -1.931000000
C    -1.880000000     2.693000000    -2.754000000
C    -3.278000000     2.062000000    -2.839000000
C    -3.622000000     1.301000000    -3.981000000
H    -2.841000000     1.166000000    -4.725000000
C    -4.183000000     2.147000000    -1.776000000
H    -3.783000000     2.625000000    -0.886000000
O    -1.291000000     3.009000000    -4.089000000
H    -1.293000000     1.907000000    -2.255000000
C     0.439000000     4.453000000    -1.461000000
C     0.799000000     4.703000000    -2.924000000
H     1.677000000     5.351000000    -2.958000000
H     0.057000000     5.167000000    -3.577000000
C     1.061000000     3.378000000    -3.574000000
C     2.386000000     2.880000000    -3.487000000
H     3.192000000     3.562000000    -3.229000000
C     0.045000000     2.584000000    -4.053000000
C     0.295000000     1.274000000    -4.406000000
H    -0.449000000     0.635000000    -4.875000000
C     1.609000000     0.740000000    -4.315000000
O     1.678000000    -0.565000000    -4.608000000
C     1.637000000    -1.479000000    -3.570000000
C     0.511000000    -2.591000000    -3.694000000
C    -0.495000000    -2.480000000    -4.669000000
H    -0.447000000    -1.790000000    -5.508000000
C     0.420000000    -3.600000000    -2.721000000
H     1.167000000    -3.688000000    -1.937000000
O     2.986000000    -1.930000000    -3.307000000
H     1.354000000    -0.979000000    -2.631000000
C     2.684000000     1.491000000    -3.887000000
C     4.083000000     0.847000000    -3.839000000
H     4.788000000     1.681000000    -3.847000000
H     4.322000000     0.269000000    -4.735000000
C     4.268000000    -0.011000000    -2.540000000
C     3.711000000    -1.282000000    -2.371000000
C     3.889000000    -1.998000000    -1.153000000
H     3.422000000    -2.967000000    -0.994000000
C     4.374000000    -1.304000000    -0.082000000
O     4.344000000    -1.877000000     1.190000000
C     3.369000000    -1.295000000     2.136000000
H     2.554000000    -0.792000000     1.596000000
C     2.735000000    -2.452000000     2.949000000
C     2.432000000    -2.472000000     4.323000000
H     2.538000000    -1.534000000     4.863000000
C     2.401000000    -3.627000000     2.264000000
H     2.853000000    -3.784000000     1.288000000
C     1.820000000    -4.749000000     2.948000000
O     1.477000000    -5.952000000     2.269000000
C     1.524000000    -4.684000000     4.262000000
H     1.201000000    -5.553000000     4.830000000
C     1.863000000    -3.542000000     4.940000000
O     1.540000000    -3.539000000     6.295000000
C     1.286000000    -2.339000000     6.974000000
C     0.181000000    -1.637000000     6.637000000
H    -0.562000000    -2.059000000     5.965000000
C     2.305000000    -1.800000000     7.780000000
H     3.247000000    -2.242000000     8.094000000
C     1.970000000    -0.637000000     8.476000000
H     2.758000000    -0.255000000     9.121000000
C     0.759000000     0.057000000     8.233000000
H     0.543000000     0.930000000     8.843000000
C    -0.136000000    -0.434000000     7.284000000
O    -1.339000000     0.156000000     7.058000000
C    -1.643000000     0.779000000     5.882000000
C    -2.985000000     0.789000000     5.413000000
H    -3.689000000     0.232000000     6.026000000
C    -3.333000000     1.411000000     4.219000000
O    -4.622000000     1.229000000     3.768000000
C    -5.266000000     1.954000000     2.783000000
C    -5.607000000     1.319000000     1.568000000
H    -5.297000000     0.287000000     1.421000000
C    -5.544000000     3.324000000     3.021000000
H    -5.302000000     3.793000000     3.971000000
C    -6.252000000     4.039000000     1.991000000
H    -6.515000000     5.074000000     2.192000000
C    -6.519000000     3.446000000     0.764000000
H    -6.937000000     4.054000000    -0.034000000
C    -6.153000000     2.083000000     0.520000000
O    -6.408000000     1.561000000    -0.700000000
C    -5.459000000     1.509000000    -1.779000000
C    -5.855000000     0.871000000    -2.997000000
H    -6.782000000     0.313000000    -2.891000000
C    -4.952000000     0.763000000    -4.027000000
O    -5.382000000     0.127000000    -5.153000000
C    -4.638000000    -0.735000000    -5.916000000
C    -3.667000000    -1.657000000    -5.397000000
H    -3.501000000    -1.717000000    -4.325000000
C    -4.801000000    -0.560000000    -7.297000000
H    -5.453000000     0.226000000    -7.671000000
C    -4.113000000    -1.374000000    -8.185000000
H    -4.258000000    -1.221000000    -9.251000000
C    -3.331000000    -2.431000000    -7.684000000
H    -2.775000000    -3.078000000    -8.358000000
C    -3.090000000    -2.529000000    -6.312000000
O    -2.291000000    -3.574000000    -5.863000000
C    -1.413000000    -3.536000000    -4.809000000
C    -1.465000000    -4.557000000    -3.818000000
H    -2.187000000    -5.361000000    -3.937000000
C    -0.520000000    -4.613000000    -2.881000000
O    -0.559000000    -5.757000000    -2.044000000
C     0.523000000    -6.153000000    -1.285000000
C     1.717000000    -6.536000000    -1.817000000
H     1.739000000    -6.670000000    -2.896000000
C     2.844000000    -6.751000000    -1.057000000
H     3.748000000    -7.057000000    -1.578000000
C     2.722000000    -6.677000000     0.384000000
H     3.516000000    -6.921000000     1.086000000
C     1.523000000    -6.208000000     0.896000000
C     0.430000000    -5.943000000     0.070000000
H    -0.438000000    -5.594000000     0.624000000
C    -1.804000000    -1.742000000    -0.199000000
H    -2.466000000    -2.177000000    -0.944000000
C    -0.938000000    -0.633000000    -0.534000000
H    -0.955000000    -0.256000000    -1.553000000
C    -0.061000000    -0.137000000     0.476000000
C     0.944000000     0.882000000     0.158000000
H     1.461000000     1.204000000     1.064000000
H     1.707000000     0.490000000    -0.517000000
H     0.403000000     1.782000000    -0.143000000
C    -0.097000000    -0.743000000     1.713000000
H     0.515000000    -0.422000000     2.551000000
C    -1.102000000    -1.651000000     2.048000000
H    -1.205000000    -2.055000000     3.052000000
C    -1.937000000    -2.230000000     1.114000000
C    -2.940000000    -3.314000000     1.467000000
O    -3.292000000    -3.363000000     2.646000000
O    -3.369000000    -4.077000000     0.631000000
O    -6.462000000    -7.722000000     1.059000000
H    -6.804000000    -8.420000000     1.618000000
H    -7.158000000    -7.066000000     1.042000000
O    -1.897000000    -6.528000000     6.152000000
H    -1.756000000    -6.024000000     5.351000000
H    -2.244000000    -5.891000000     6.777000000
O    -1.698000000    -5.048000000     3.872000000
H    -0.923000000    -4.832000000     3.354000000
H    -2.365000000    -4.430000000     3.574000000
O    -3.452000000    -9.206000000     1.090000000
H    -4.251000000    -8.691000000     0.976000000
H    -2.944000000    -8.720000000     1.739000000
O    -4.502000000    -1.978000000     4.482000000
H    -3.622000000    -1.769000000     4.794000000
H    -4.366000000    -2.332000000     3.603000000
O    -3.138000000    -6.392000000    -0.727000000
H    -3.163000000    -5.602000000    -0.187000000
H    -3.034000000    -6.067000000    -1.622000000
O    -6.609000000    -6.921000000     4.321000000
H    -6.915000000    -6.220000000     4.896000000
H    -5.808000000    -6.576000000     3.928000000
O    -7.439000000    -5.162000000     6.271000000
H    -7.185000000    -4.534000000     5.596000000
H    -6.731000000    -5.123000000     6.914000000
O    -6.590000000    -5.600000000    -1.636000000
H    -5.689000000    -5.916000000    -1.568000000
H    -7.039000000    -6.266000000    -2.157000000
O    -8.015000000    -5.002000000     2.018000000
H    -7.359000000    -5.119000000     2.705000000
H    -7.584000000    -4.448000000     1.366000000
O     0.534000000    -9.233000000     2.116000000
H    -0.064000000    -8.670000000     1.624000000
H    -0.020000000    -9.653000000     2.774000000
O    -7.285000000    -1.307000000     1.988000000
H    -6.992000000    -1.333000000     2.899000000
H    -6.822000000    -2.031000000     1.566000000
O    -4.048000000    -4.059000000    -2.381000000
H    -4.989000000    -4.219000000    -2.309000000
H    -3.846000000    -3.479000000    -1.648000000
O    -2.017000000    -7.739000000     2.965000000
H    -1.885000000    -8.234000000     3.774000000
H    -2.139000000    -6.835000000     3.255000000
O    -5.396000000    -3.392000000     7.822000000
H    -5.273000000    -2.447000000     7.908000000
H    -4.670000000    -3.679000000     7.267000000
O    -1.651000000    -8.862000000    -0.858000000
H    -1.592000000    -7.945000000    -0.591000000
H    -2.423000000    -9.195000000    -0.401000000
O    -7.133000000    -3.475000000     4.227000000
H    -6.232000000    -3.282000000     3.968000000
H    -7.543000000    -2.616000000     4.326000000
O    -4.882000000    -5.637000000     2.791000000
H    -4.410000000    -4.809000000     2.880000000
H    -5.119000000    -5.678000000     1.864000000
O    -5.919000000    -3.471000000     0.562000000
H    -4.975000000    -3.623000000     0.511000000
H    -6.277000000    -3.927000000    -0.200000000
