218
-1474.24626
C    -2.420000000     1.551000000     4.283000000
H    -2.794000000     2.300000000     3.591000000
C    -1.041000000     1.371000000     4.344000000
C    -0.449000000     0.463000000     5.301000000
H     0.626000000     0.320000000     5.371000000
C    -0.168000000     2.317000000     3.468000000
O    -0.919000000     3.573000000     3.044000000
H     0.000000000     1.709000000     2.567000000
O     1.148000000     2.588000000     4.071000000
C     2.265000000     2.426000000     3.221000000
C     2.996000000     1.259000000     3.439000000
H     2.726000000     0.554000000     4.221000000
C     3.891000000     0.892000000     2.474000000
O     4.315000000    -0.385000000     2.475000000
C     4.303000000     1.797000000     1.484000000
C     5.442000000     1.357000000     0.551000000
H     6.007000000     2.255000000     0.292000000
C     4.842000000     0.686000000    -0.686000000
C     4.459000000     1.465000000    -1.742000000
H     4.743000000     2.515000000    -1.725000000
H     6.158000000     0.662000000     0.996000000
C     3.625000000     3.020000000     1.362000000
H     3.859000000     3.739000000     0.581000000
C     2.543000000     3.320000000     2.216000000
C     1.762000000     4.603000000     2.133000000
H     2.459000000     5.306000000     1.673000000
H     1.568000000     5.080000000     3.096000000
C     0.514000000     4.612000000     1.259000000
C     0.646000000     4.941000000    -0.047000000
H     1.584000000     5.315000000    -0.448000000
C    -0.734000000     4.201000000     1.796000000
C    -1.842000000     4.201000000     0.967000000
H    -2.765000000     3.777000000     1.355000000
C    -1.658000000     4.530000000    -0.401000000
O    -2.715000000     4.233000000    -1.276000000
C    -2.524000000     3.080000000    -2.047000000
C    -3.777000000     2.114000000    -1.941000000
C    -4.446000000     1.665000000    -3.115000000
H    -4.105000000     1.923000000    -4.114000000
C    -4.187000000     1.712000000    -0.684000000
H    -3.586000000     2.005000000     0.172000000
O    -2.103000000     3.251000000    -3.388000000
H    -1.710000000     2.511000000    -1.574000000
C    -0.429000000     5.014000000    -0.908000000
C    -0.208000000     5.251000000    -2.379000000
H     0.640000000     5.932000000    -2.474000000
H    -1.073000000     5.691000000    -2.880000000
C     0.222000000     3.893000000    -3.082000000
C     1.581000000     3.527000000    -3.356000000
H     2.270000000     4.315000000    -3.062000000
C    -0.735000000     3.037000000    -3.573000000
C    -0.390000000     1.833000000    -4.252000000
H    -1.179000000     1.152000000    -4.561000000
C     0.906000000     1.495000000    -4.403000000
O     1.082000000     0.266000000    -4.962000000
C     1.296000000    -0.706000000    -3.873000000
C     0.374000000    -1.932000000    -3.987000000
C    -0.737000000    -2.047000000    -4.850000000
H    -0.958000000    -1.257000000    -5.563000000
C     0.628000000    -3.013000000    -3.127000000
H     1.404000000    -2.937000000    -2.370000000
O     2.637000000    -1.057000000    -3.805000000
H     0.951000000    -0.259000000    -2.929000000
C     1.964000000     2.329000000    -4.000000000
C     3.443000000     1.873000000    -4.014000000
H     4.025000000     2.794000000    -3.934000000
H     3.640000000     1.479000000    -5.013000000
C     3.804000000     0.952000000    -2.839000000
C     3.392000000    -0.420000000    -2.815000000
C     3.646000000    -1.181000000    -1.642000000
H     3.180000000    -2.140000000    -1.431000000
C     4.414000000    -0.593000000    -0.605000000
O     4.693000000    -1.337000000     0.459000000
C     3.771000000    -1.274000000     1.497000000
H     2.808000000    -0.908000000     1.111000000
C     3.537000000    -2.659000000     2.089000000
C     3.110000000    -2.787000000     3.386000000
H     2.985000000    -1.931000000     4.044000000
C     3.625000000    -3.721000000     1.180000000
H     3.843000000    -3.538000000     0.131000000
C     3.468000000    -5.002000000     1.671000000
O     3.670000000    -6.126000000     0.879000000
C     3.001000000    -5.161000000     2.943000000
H     2.913000000    -6.126000000     3.436000000
C     2.761000000    -4.054000000     3.810000000
O     2.277000000    -4.341000000     5.056000000
C     1.954000000    -3.285000000     5.958000000
C     0.654000000    -2.883000000     6.034000000
H    -0.082000000    -3.343000000     5.380000000
C     2.982000000    -2.753000000     6.690000000
H     3.962000000    -3.216000000     6.600000000
C     2.651000000    -1.702000000     7.558000000
H     3.472000000    -1.301000000     8.145000000
C     1.349000000    -1.197000000     7.651000000
H     1.106000000    -0.345000000     8.282000000
C     0.357000000    -1.873000000     6.948000000
O    -0.919000000    -1.312000000     6.782000000
C    -1.366000000    -0.224000000     6.071000000
C    -2.738000000     0.117000000     6.189000000
H    -3.367000000    -0.440000000     6.879000000
C    -3.281000000     1.014000000     5.260000000
O    -4.648000000     1.245000000     5.299000000
C    -5.301000000     1.598000000     4.112000000
C    -5.221000000     0.771000000     3.054000000
H    -4.746000000    -0.205000000     3.125000000
C    -5.746000000     2.918000000     3.884000000
H    -5.691000000     3.639000000     4.696000000
C    -6.081000000     3.404000000     2.601000000
H    -6.392000000     4.434000000     2.440000000
C    -6.034000000     2.504000000     1.511000000
H    -6.401000000     2.756000000     0.520000000
C    -5.662000000     1.195000000     1.787000000
O    -5.604000000     0.331000000     0.677000000
C    -5.251000000     0.781000000    -0.610000000
C    -5.839000000     0.300000000    -1.797000000
H    -6.622000000    -0.454000000    -1.771000000
C    -5.431000000     0.731000000    -3.066000000
O    -5.975000000     0.160000000    -4.176000000
C    -5.080000000    -0.336000000    -5.110000000
C    -4.373000000    -1.512000000    -4.783000000
H    -4.488000000    -2.076000000    -3.861000000
C    -5.180000000     0.159000000    -6.399000000
H    -5.926000000     0.929000000    -6.579000000
C    -4.412000000    -0.473000000    -7.443000000
H    -4.478000000    -0.138000000    -8.475000000
C    -3.692000000    -1.575000000    -7.089000000
H    -3.183000000    -1.966000000    -7.967000000
C    -3.554000000    -2.065000000    -5.770000000
O    -2.751000000    -3.144000000    -5.510000000
C    -1.583000000    -3.167000000    -4.758000000
C    -1.223000000    -4.260000000    -4.022000000
H    -1.804000000    -5.172000000    -3.915000000
C    -0.155000000    -4.171000000    -3.235000000
O     0.062000000    -5.223000000    -2.255000000
C     1.313000000    -5.762000000    -2.061000000
C     2.107000000    -6.339000000    -3.047000000
H     1.639000000    -6.408000000    -4.025000000
C     3.320000000    -6.936000000    -2.734000000
H     3.727000000    -7.567000000    -3.520000000
C     3.801000000    -6.868000000    -1.414000000
H     4.757000000    -7.302000000    -1.131000000
C     3.099000000    -6.219000000    -0.416000000
C     1.846000000    -5.704000000    -0.776000000
H     1.279000000    -5.184000000    -0.009000000
C    -2.058000000    -1.855000000    -0.852000000
H    -2.751000000    -2.356000000    -1.523000000
C    -1.375000000    -0.677000000    -1.140000000
H    -1.650000000    -0.163000000    -2.058000000
C    -0.349000000    -0.217000000    -0.281000000
C     0.355000000     1.167000000    -0.457000000
H     1.220000000     1.184000000     0.209000000
H     0.648000000     1.241000000    -1.506000000
H    -0.265000000     1.986000000    -0.088000000
C    -0.080000000    -0.850000000     0.856000000
H     0.626000000    -0.395000000     1.546000000
C    -0.800000000    -1.990000000     1.215000000
H    -0.594000000    -2.540000000     2.129000000
C    -1.740000000    -2.502000000     0.318000000
C    -2.496000000    -3.781000000     0.669000000
O    -2.265000000    -4.417000000     1.683000000
O    -3.421000000    -4.141000000    -0.052000000
O    -5.382000000    -5.543000000     1.420000000
H    -4.572000000    -5.090000000     1.187000000
H    -6.064000000    -4.878000000     1.325000000
O     0.447000000    -7.186000000     5.184000000
H     0.370000000    -6.806000000     4.308000000
H     0.425000000    -6.433000000     5.774000000
O    -0.102000000    -5.914000000     2.590000000
H    -0.375000000    -6.538000000     1.918000000
H    -0.791000000    -5.250000000     2.594000000
O    -7.098000000    -2.930000000     2.588000000
H    -6.488000000    -2.842000000     3.320000000
H    -7.535000000    -2.079000000     2.537000000
O    -7.135000000    -2.829000000    -3.114000000
H    -6.987000000    -2.302000000    -2.329000000
H    -6.459000000    -3.506000000    -3.080000000
O    -2.641000000    -3.227000000     3.876000000
H    -2.804000000    -3.944000000     4.489000000
H    -2.476000000    -3.660000000     3.039000000
O    -1.837000000    -6.659000000    -0.883000000
H    -2.143000000    -6.011000000    -0.248000000
H    -1.125000000    -6.220000000    -1.348000000
O    -2.148000000    -7.537000000    -3.634000000
H    -1.390000000    -8.102000000    -3.788000000
H    -2.422000000    -7.742000000    -2.740000000
O    -5.660000000    -8.463000000     1.739000000
H    -5.540000000    -7.550000000     1.477000000
H    -6.393000000    -8.771000000     1.205000000
O    -1.300000000    -8.592000000     2.616000000
H    -2.020000000    -7.997000000     2.827000000
H    -1.194000000    -9.127000000     3.403000000
O    -7.913000000    -4.259000000     0.522000000
H    -7.725000000    -3.858000000     1.371000000
H    -7.487000000    -3.685000000    -0.114000000
O    -2.253000000    -7.965000000     5.532000000
H    -1.301000000    -8.043000000     5.596000000
H    -2.402000000    -7.052000000     5.288000000
O    -5.331000000    -2.065000000     4.845000000
H    -4.378000000    -1.995000000     4.787000000
H    -5.482000000    -2.844000000     5.381000000
O    -5.360000000    -4.390000000    -5.000000000
H    -4.563000000    -4.596000000    -5.488000000
H    -5.080000000    -4.365000000    -4.085000000
O    -4.514000000    -4.897000000    -2.513000000
H    -4.793000000    -5.797000000    -2.346000000
H    -4.148000000    -4.601000000    -1.679000000
O    -1.369000000    -9.346000000    -0.097000000
H    -1.335000000    -9.091000000     0.825000000
H    -1.620000000    -8.546000000    -0.558000000
O    -3.522000000    -5.115000000     5.969000000
H    -3.502000000    -5.131000000     6.926000000
H    -4.419000000    -4.861000000     5.752000000
O    -3.217000000    -6.755000000     2.915000000
H    -2.928000000    -5.967000000     2.456000000
H    -4.124000000    -6.877000000     2.634000000
O    -5.673000000    -2.431000000    -0.578000000
H    -5.285000000    -1.585000000    -0.355000000
H    -4.931000000    -3.034000000    -0.609000000
