218
-1460.01693
C    -1.638000000     1.970000000     4.184000000
H    -2.193000000     2.505000000     3.416000000
C    -0.264000000     1.772000000     4.064000000
C     0.409000000     0.836000000     4.826000000
H     1.495000000     0.786000000     4.825000000
C     0.582000000     2.661000000     3.168000000
O     0.080000000     3.974000000     3.070000000
H     0.573000000     2.256000000     2.145000000
O     1.953000000     2.696000000     3.574000000
C     2.834000000     2.396000000     2.575000000
C     3.520000000     1.162000000     2.601000000
H     3.317000000     0.435000000     3.383000000
C     4.312000000     0.841000000     1.501000000
O     4.896000000    -0.359000000     1.468000000
C     4.486000000     1.744000000     0.446000000
C     5.355000000     1.254000000    -0.732000000
H     5.675000000     2.163000000    -1.246000000
C     4.556000000     0.458000000    -1.727000000
C     3.853000000     1.125000000    -2.723000000
H     3.850000000     2.212000000    -2.757000000
H     6.206000000     0.651000000    -0.408000000
C     3.785000000     2.925000000     0.420000000
H     3.931000000     3.566000000    -0.446000000
C     3.007000000     3.339000000     1.521000000
C     2.385000000     4.775000000     1.534000000
H     2.912000000     5.466000000     0.874000000
H     2.352000000     5.153000000     2.557000000
C     1.042000000     4.699000000     0.902000000
C     0.829000000     4.976000000    -0.537000000
H     1.670000000     5.204000000    -1.187000000
C    -0.083000000     4.386000000     1.726000000
C    -1.339000000     4.346000000     1.126000000
H    -2.187000000     3.991000000     1.705000000
C    -1.485000000     4.369000000    -0.259000000
O    -2.744000000     4.141000000    -0.788000000
C    -3.128000000     2.913000000    -1.445000000
C    -4.577000000     2.425000000    -1.144000000
C    -5.115000000     1.415000000    -1.930000000
H    -4.518000000     0.962000000    -2.717000000
C    -5.265000000     2.780000000    -0.023000000
H    -4.663000000     3.331000000     0.695000000
O    -2.822000000     3.023000000    -2.866000000
H    -2.438000000     2.171000000    -1.016000000
C    -0.448000000     4.725000000    -1.121000000
C    -0.629000000     4.828000000    -2.576000000
H     0.116000000     5.456000000    -3.070000000
H    -1.581000000     5.261000000    -2.890000000
C    -0.445000000     3.395000000    -3.143000000
C     0.769000000     2.941000000    -3.544000000
H     1.655000000     3.526000000    -3.310000000
C    -1.579000000     2.624000000    -3.300000000
C    -1.475000000     1.407000000    -3.974000000
H    -2.310000000     0.739000000    -4.167000000
C    -0.228000000     0.999000000    -4.488000000
O     0.020000000    -0.307000000    -4.891000000
C     0.533000000    -1.254000000    -3.911000000
C    -0.352000000    -2.542000000    -3.867000000
C    -1.713000000    -2.551000000    -4.099000000
H    -2.133000000    -1.617000000    -4.465000000
C     0.276000000    -3.706000000    -3.319000000
H     1.346000000    -3.684000000    -3.128000000
O     1.936000000    -1.567000000    -4.325000000
H     0.582000000    -0.789000000    -2.916000000
C     0.922000000     1.755000000    -4.252000000
C     2.300000000     1.271000000    -4.729000000
H     2.819000000     2.209000000    -4.935000000
H     2.226000000     0.733000000    -5.676000000
C     3.047000000     0.456000000    -3.670000000
C     2.932000000    -0.964000000    -3.548000000
C     3.558000000    -1.653000000    -2.506000000
H     3.381000000    -2.718000000    -2.381000000
C     4.378000000    -0.911000000    -1.651000000
O     4.907000000    -1.631000000    -0.621000000
C     4.266000000    -1.393000000     0.626000000
H     3.252000000    -1.000000000     0.462000000
C     4.020000000    -2.678000000     1.355000000
C     3.911000000    -2.689000000     2.755000000
H     4.048000000    -1.797000000     3.360000000
C     3.931000000    -3.853000000     0.636000000
H     3.989000000    -3.892000000    -0.449000000
C     3.821000000    -5.071000000     1.330000000
O     3.535000000    -6.236000000     0.728000000
C     3.744000000    -5.062000000     2.733000000
H     3.428000000    -5.943000000     3.285000000
C     3.704000000    -3.862000000     3.434000000
O     3.472000000    -3.907000000     4.785000000
C     3.226000000    -2.814000000     5.507000000
C     1.922000000    -2.355000000     5.582000000
H     1.140000000    -2.950000000     5.118000000
C     4.268000000    -2.126000000     6.140000000
H     5.300000000    -2.440000000     6.007000000
C     3.969000000    -1.016000000     6.857000000
H     4.785000000    -0.552000000     7.405000000
C     2.711000000    -0.478000000     6.914000000
H     2.491000000     0.422000000     7.482000000
C     1.666000000    -1.148000000     6.276000000
O     0.328000000    -0.821000000     6.456000000
C    -0.340000000     0.080000000     5.715000000
C    -1.740000000     0.079000000     5.675000000
H    -2.323000000    -0.560000000     6.333000000
C    -2.409000000     1.098000000     4.963000000
O    -3.803000000     0.964000000     4.868000000
C    -4.596000000     1.917000000     4.258000000
C    -5.506000000     1.569000000     3.228000000
H    -5.583000000     0.518000000     2.964000000
C    -4.454000000     3.248000000     4.647000000
H    -3.832000000     3.547000000     5.487000000
C    -5.185000000     4.207000000     4.015000000
H    -5.007000000     5.237000000     4.312000000
C    -6.011000000     3.889000000     2.942000000
H    -6.560000000     4.652000000     2.396000000
C    -6.228000000     2.574000000     2.617000000
O    -7.060000000     2.235000000     1.601000000
C    -6.535000000     2.189000000     0.272000000
C    -6.942000000     1.106000000    -0.439000000
H    -7.785000000     0.504000000    -0.111000000
C    -6.265000000     0.714000000    -1.583000000
O    -6.814000000    -0.277000000    -2.399000000
C    -6.126000000    -0.928000000    -3.372000000
C    -5.312000000    -1.944000000    -3.013000000
H    -5.104000000    -2.280000000    -2.000000000
C    -6.112000000    -0.433000000    -4.661000000
H    -6.587000000     0.509000000    -4.922000000
C    -5.417000000    -1.031000000    -5.726000000
H    -5.502000000    -0.776000000    -6.779000000
C    -4.638000000    -2.203000000    -5.405000000
H    -4.256000000    -2.844000000    -6.196000000
C    -4.493000000    -2.494000000    -4.055000000
O    -3.839000000    -3.625000000    -3.771000000
C    -2.477000000    -3.683000000    -3.775000000
C    -1.899000000    -4.832000000    -3.229000000
H    -2.539000000    -5.662000000    -2.942000000
C    -0.542000000    -4.898000000    -3.032000000
O    -0.031000000    -6.032000000    -2.436000000
C     1.361000000    -6.258000000    -2.190000000
C     2.261000000    -6.268000000    -3.222000000
H     1.927000000    -6.133000000    -4.247000000
C     3.609000000    -6.330000000    -2.961000000
H     4.271000000    -6.296000000    -3.822000000
C     4.109000000    -6.359000000    -1.647000000
H     5.162000000    -6.401000000    -1.380000000
C     3.169000000    -6.304000000    -0.619000000
C     1.819000000    -6.343000000    -0.909000000
H     1.025000000    -6.283000000    -0.168000000
C    -1.086000000    -3.072000000     0.185000000
H    -1.719000000    -3.775000000    -0.350000000
C    -0.870000000    -1.794000000    -0.286000000
H    -1.513000000    -1.474000000    -1.102000000
C     0.042000000    -0.890000000     0.315000000
C     0.242000000     0.586000000    -0.074000000
H     1.309000000     0.817000000    -0.052000000
H    -0.229000000     0.774000000    -1.041000000
H    -0.237000000     1.193000000     0.698000000
C     0.728000000    -1.349000000     1.425000000
H     1.305000000    -0.668000000     2.044000000
C     0.511000000    -2.646000000     1.926000000
H     1.046000000    -2.928000000     2.829000000
C    -0.373000000    -3.475000000     1.298000000
C    -0.564000000    -4.898000000     1.905000000
O     0.328000000    -5.463000000     2.402000000
O    -1.587000000    -5.515000000     1.591000000
O    -2.358000000    -7.402000000     6.147000000
H    -1.821000000    -7.289000000     5.363000000
H    -1.726000000    -7.532000000     6.854000000
O    -3.462000000    -5.020000000     3.661000000
H    -2.734000000    -4.922000000     4.275000000
H    -3.048000000    -5.281000000     2.839000000
O    -5.140000000    -7.280000000     1.749000000
H    -5.933000000    -7.702000000     1.416000000
H    -5.315000000    -7.144000000     2.680000000
O     1.751000000    -7.783000000     2.819000000
H     1.860000000    -8.066000000     1.911000000
H     1.388000000    -6.900000000     2.752000000
O    -5.004000000    -3.364000000     1.377000000
H    -4.510000000    -3.736000000     2.107000000
H    -5.003000000    -4.052000000     0.711000000
O    -1.858000000    -1.303000000     3.164000000
H    -0.983000000    -1.688000000     3.132000000
H    -1.803000000    -0.536000000     2.594000000
O    -1.679000000    -8.808000000    -1.689000000
H    -1.898000000    -8.346000000    -0.880000000
H    -2.516000000    -9.149000000    -2.005000000
O    -6.105000000    -6.560000000     4.476000000
H    -6.883000000    -6.052000000     4.244000000
H    -5.370000000    -5.999000000     4.230000000
O    -4.189000000    -1.670000000     4.804000000
H    -4.280000000    -0.751000000     5.054000000
H    -3.436000000    -1.684000000     4.214000000
O    -1.850000000    -7.681000000     3.329000000
H    -1.189000000    -7.029000000     3.097000000
H    -2.113000000    -8.063000000     2.491000000
O    -0.060000000   -10.252000000     3.090000000
H    -0.485000000    -9.429000000     3.332000000
H     0.697000000    -9.986000000     2.568000000
O     1.811000000    -7.046000000     6.709000000
H     2.110000000    -6.469000000     7.412000000
H     1.171000000    -7.622000000     7.128000000
O    -4.045000000    -5.614000000    -0.152000000
H    -4.483000000    -6.220000000     0.446000000
H    -3.191000000    -5.457000000     0.249000000
O     1.023000000    -9.402000000     0.265000000
H     1.519000000    -9.212000000    -0.532000000
H     0.160000000    -9.671000000    -0.048000000
O     4.696000000    -8.970000000     1.746000000
H     5.340000000    -8.679000000     2.391000000
H     4.094000000    -8.231000000     1.658000000
O    -0.046000000    -5.637000000     5.120000000
H     0.578000000    -6.228000000     5.543000000
H     0.265000000    -5.567000000     4.218000000
O    -3.061000000    -4.601000000     7.245000000
H    -2.594000000    -4.865000000     6.453000000
H    -3.528000000    -5.390000000     7.522000000
O    -2.366000000    -7.880000000     0.579000000
H    -1.860000000    -7.078000000     0.705000000
H    -3.227000000    -7.680000000     0.945000000
O    -3.541000000    -1.044000000     0.679000000
H    -4.088000000    -1.647000000     1.183000000
H    -2.743000000    -1.540000000     0.498000000
