218
-1443.07105
C    -3.684000000    -3.504000000    -2.309000000
H    -3.746000000    -3.062000000    -3.300000000
C    -3.745000000    -2.772000000    -1.175000000
C    -3.468000000    -3.346000000     0.030000000
H    -3.427000000    -2.739000000     0.931000000
C    -4.101000000    -1.240000000    -1.348000000
O    -4.455000000    -0.841000000    -2.611000000
H    -3.131000000    -0.768000000    -1.132000000
O    -5.017000000    -0.714000000    -0.358000000
C    -4.654000000     0.459000000     0.292000000
C    -3.997000000     0.222000000     1.451000000
H    -3.875000000    -0.785000000     1.842000000
C    -3.576000000     1.365000000     2.244000000
O    -3.117000000     1.104000000     3.495000000
C    -3.647000000     2.628000000     1.737000000
C    -3.138000000     3.865000000     2.514000000
H    -3.541000000     4.774000000     2.062000000
C    -1.608000000     3.969000000     2.420000000
C    -1.052000000     4.800000000     1.466000000
H    -1.700000000     5.239000000     0.712000000
H    -3.324000000     3.716000000     3.579000000
C    -4.207000000     2.817000000     0.460000000
H    -4.327000000     3.844000000     0.124000000
C    -4.728000000     1.701000000    -0.283000000
C    -5.067000000     1.841000000    -1.781000000
H    -5.462000000     2.838000000    -1.986000000
H    -5.850000000     1.119000000    -2.022000000
C    -3.952000000     1.541000000    -2.714000000
C    -3.046000000     2.569000000    -3.044000000
H    -3.253000000     3.587000000    -2.722000000
C    -3.732000000     0.216000000    -3.118000000
C    -2.631000000    -0.046000000    -3.915000000
H    -2.304000000    -1.012000000    -4.291000000
C    -1.745000000     0.996000000    -4.124000000
O    -0.519000000     0.650000000    -4.815000000
C     0.650000000     0.559000000    -3.983000000
C     1.471000000    -0.717000000    -4.140000000
C     2.813000000    -0.730000000    -3.886000000
H     3.349000000     0.152000000    -3.546000000
C     0.844000000    -1.905000000    -4.550000000
H    -0.230000000    -1.932000000    -4.714000000
O     1.509000000     1.738000000    -4.096000000
H     0.200000000     0.460000000    -2.984000000
C    -1.907000000     2.274000000    -3.721000000
C    -0.856000000     3.354000000    -4.115000000
H    -1.425000000     4.247000000    -4.385000000
H    -0.440000000     3.129000000    -5.100000000
C     0.226000000     3.493000000    -3.133000000
C     0.053000000     4.443000000    -2.113000000
H    -0.842000000     5.059000000    -2.114000000
C     1.370000000     2.714000000    -3.191000000
C     2.386000000     2.899000000    -2.248000000
H     3.275000000     2.275000000    -2.225000000
C     2.199000000     3.827000000    -1.168000000
O     3.152000000     3.984000000    -0.195000000
C     2.979000000     3.318000000     1.057000000
C     4.234000000     2.511000000     1.416000000
C     5.182000000     2.145000000     0.446000000
H     5.180000000     2.833000000    -0.395000000
C     4.367000000     1.909000000     2.636000000
H     3.702000000     2.169000000     3.455000000
O     2.614000000     4.191000000     2.111000000
H     2.236000000     2.513000000     0.962000000
C     1.010000000     4.574000000    -1.085000000
C     0.856000000     5.549000000     0.098000000
H     0.150000000     6.337000000    -0.174000000
H     1.841000000     5.996000000     0.250000000
C     0.333000000     4.797000000     1.287000000
C     1.273000000     4.291000000     2.236000000
C     0.703000000     3.452000000     3.206000000
H     1.306000000     2.886000000     3.912000000
C    -0.742000000     3.292000000     3.237000000
O    -1.247000000     2.442000000     4.148000000
C    -1.713000000     1.132000000     3.733000000
H    -1.262000000     0.980000000     2.741000000
C    -1.209000000     0.036000000     4.649000000
C    -1.841000000    -1.236000000     4.584000000
H    -2.673000000    -1.376000000     3.899000000
C    -0.181000000     0.184000000     5.577000000
H     0.292000000     1.162000000     5.612000000
C     0.342000000    -0.840000000     6.277000000
O     1.435000000    -0.653000000     7.126000000
C    -0.403000000    -2.029000000     6.307000000
H    -0.075000000    -2.839000000     6.953000000
C    -1.431000000    -2.213000000     5.494000000
O    -2.137000000    -3.382000000     5.543000000
C    -2.972000000    -3.803000000     4.633000000
C    -2.500000000    -4.435000000     3.474000000
H    -1.428000000    -4.501000000     3.308000000
C    -4.323000000    -3.798000000     4.892000000
H    -4.610000000    -3.279000000     5.802000000
C    -5.284000000    -4.302000000     3.930000000
H    -6.354000000    -4.220000000     4.102000000
C    -4.802000000    -4.978000000     2.813000000
H    -5.544000000    -5.358000000     2.116000000
C    -3.415000000    -4.975000000     2.567000000
O    -2.880000000    -5.287000000     1.412000000
C    -3.205000000    -4.689000000     0.193000000
C    -3.078000000    -5.472000000    -0.964000000
H    -3.006000000    -6.555000000    -0.904000000
C    -3.295000000    -4.900000000    -2.273000000
O    -3.306000000    -5.589000000    -3.492000000
C    -2.575000000    -5.176000000    -4.618000000
C    -1.205000000    -4.953000000    -4.439000000
H    -0.765000000    -5.092000000    -3.455000000
C    -3.180000000    -5.009000000    -5.870000000
H    -4.228000000    -5.119000000    -6.137000000
C    -2.275000000    -4.720000000    -6.951000000
H    -2.656000000    -4.618000000    -7.964000000
C    -0.956000000    -4.485000000    -6.744000000
H    -0.352000000    -4.264000000    -7.621000000
C    -0.405000000    -4.522000000    -5.479000000
O     0.931000000    -4.260000000    -5.237000000
C     1.534000000    -3.132000000    -4.733000000
C     2.945000000    -3.100000000    -4.330000000
H     3.488000000    -4.041000000    -4.365000000
C     3.559000000    -1.917000000    -3.929000000
O     4.902000000    -1.958000000    -3.513000000
C     5.678000000    -0.835000000    -3.205000000
C     5.800000000    -0.413000000    -1.884000000
H     5.508000000    -0.982000000    -1.006000000
C     6.400000000    -0.286000000    -4.297000000
H     6.214000000    -0.672000000    -5.296000000
C     7.337000000     0.722000000    -3.975000000
H     7.889000000     1.300000000    -4.711000000
C     7.485000000     1.142000000    -2.598000000
H     8.260000000     1.873000000    -2.384000000
C     6.716000000     0.559000000    -1.592000000
O     7.077000000     0.802000000    -0.285000000
C     6.081000000     1.081000000     0.660000000
C     5.978000000     0.345000000     1.788000000
H     6.631000000    -0.520000000     1.877000000
C     5.167000000     0.741000000     2.826000000
O     5.059000000    -0.121000000     3.977000000
C     4.439000000     0.322000000     5.113000000
C     4.894000000     1.475000000     5.837000000
H     5.813000000     1.999000000     5.588000000
C     4.136000000     1.774000000     6.949000000
H     4.563000000     2.553000000     7.576000000
C     2.973000000     1.148000000     7.394000000
H     2.434000000     1.504000000     8.268000000
C     2.520000000     0.089000000     6.664000000
C     3.214000000    -0.367000000     5.510000000
H     2.887000000    -1.243000000     4.956000000
C     0.976000000    -2.535000000    -1.247000000
H     0.675000000    -3.396000000    -1.837000000
C     0.163000000    -1.410000000    -1.204000000
H    -0.725000000    -1.358000000    -1.828000000
C     0.576000000    -0.349000000    -0.402000000
C    -0.384000000     0.832000000    -0.274000000
H    -1.283000000     0.428000000     0.197000000
H     0.018000000     1.520000000     0.473000000
H    -0.640000000     1.370000000    -1.189000000
C     1.749000000    -0.475000000     0.318000000
H     2.159000000     0.307000000     0.953000000
C     2.618000000    -1.588000000     0.251000000
H     3.570000000    -1.696000000     0.764000000
C     2.238000000    -2.619000000    -0.600000000
C     3.099000000    -3.827000000    -0.694000000
O     4.102000000    -3.917000000     0.003000000
O     2.725000000    -4.734000000    -1.400000000
O     4.277000000    -3.721000000     5.559000000
H     4.678000000    -4.493000000     5.957000000
H     4.087000000    -3.987000000     4.659000000
O     8.194000000    -4.211000000    -0.987000000
H     7.381000000    -4.687000000    -1.155000000
H     8.621000000    -4.705000000    -0.287000000
O     5.835000000    -7.315000000    -0.210000000
H     5.337000000    -7.459000000     0.595000000
H     6.480000000    -8.021000000    -0.222000000
O     6.620000000    -5.387000000    -4.589000000
H     6.305000000    -5.203000000    -3.704000000
H     5.931000000    -5.052000000    -5.163000000
O     7.013000000    -6.949000000     2.730000000
H     6.193000000    -7.392000000     2.512000000
H     7.529000000    -6.990000000     1.925000000
O     1.517000000    -6.571000000    -3.270000000
H     1.914000000    -6.286000000    -4.093000000
H     1.922000000    -6.015000000    -2.604000000
O     6.930000000    -3.707000000     3.000000000
H     6.656000000    -3.074000000     2.336000000
H     6.224000000    -4.353000000     3.021000000
O     1.004000000    -9.185000000    -4.329000000
H     1.244000000    -8.391000000    -3.852000000
H     0.303000000    -9.576000000    -3.807000000
O     0.628000000    -5.011000000     4.841000000
H     1.111000000    -4.725000000     5.617000000
H     0.476000000    -4.207000000     4.344000000
O     2.391000000    -9.464000000    -1.557000000
H     2.854000000    -9.102000000    -2.312000000
H     2.122000000    -8.697000000    -1.051000000
O     0.902000000    -2.723000000     2.575000000
H     0.642000000    -2.347000000     1.734000000
H     1.599000000    -3.341000000     2.356000000
O     4.279000000    -8.273000000    -3.480000000
H     4.223000000    -7.663000000    -4.215000000
H     4.806000000    -7.812000000    -2.826000000
O    -0.095000000    -5.416000000     1.151000000
H    -0.970000000    -5.334000000     0.773000000
H    -0.217000000    -5.971000000     1.921000000
O     4.295000000    -4.948000000     2.544000000
H     4.217000000    -4.573000000     1.667000000
H     3.740000000    -5.728000000     2.521000000
O     3.093000000    -7.446000000     2.272000000
H     2.621000000    -7.547000000     1.446000000
H     3.677000000    -8.203000000     2.309000000
O     1.910000000    -7.218000000    -0.156000000
H     2.364000000    -6.579000000    -0.705000000
H     1.187000000    -6.727000000     0.236000000
O     4.146000000    -6.854000000    -5.728000000
H     4.868000000    -7.035000000    -6.330000000
H     3.972000000    -5.919000000    -5.837000000
O     6.301000000    -2.574000000     0.486000000
H     5.478000000    -3.060000000     0.447000000
H     6.901000000    -3.073000000    -0.069000000
O     5.773000000    -5.143000000    -1.982000000
H     4.888000000    -4.844000000    -1.772000000
H     5.822000000    -6.025000000    -1.615000000
