218
-1452.65236
C    -1.994000000     2.446000000     3.728000000
H    -2.427000000     2.771000000     2.786000000
C    -0.591000000     2.607000000     3.994000000
C    -0.048000000     2.097000000     5.163000000
H     1.001000000     2.171000000     5.438000000
C     0.317000000     3.241000000     2.939000000
O    -0.191000000     4.496000000     2.447000000
H     0.323000000     2.600000000     2.045000000
O     1.658000000     3.341000000     3.446000000
C     2.626000000     3.025000000     2.552000000
C     3.199000000     1.776000000     2.743000000
H     2.926000000     1.178000000     3.610000000
C     4.099000000     1.271000000     1.840000000
O     4.448000000    -0.061000000     1.992000000
C     4.515000000     2.068000000     0.748000000
C     5.413000000     1.467000000    -0.311000000
H     5.898000000     2.304000000    -0.817000000
C     4.743000000     0.539000000    -1.295000000
C     4.290000000     0.966000000    -2.486000000
H     4.390000000     2.008000000    -2.778000000
H     6.164000000     0.906000000     0.249000000
C     3.930000000     3.299000000     0.516000000
H     4.155000000     3.965000000    -0.314000000
C     2.911000000     3.789000000     1.411000000
C     2.220000000     5.084000000     1.130000000
H     2.822000000     5.770000000     0.531000000
H     1.999000000     5.650000000     2.038000000
C     0.966000000     4.785000000     0.380000000
C     0.921000000     4.743000000    -1.014000000
H     1.760000000     5.035000000    -1.641000000
C    -0.180000000     4.578000000     1.078000000
C    -1.346000000     4.236000000     0.424000000
H    -2.244000000     4.005000000     0.991000000
C    -1.342000000     4.025000000    -0.913000000
O    -2.553000000     3.635000000    -1.468000000
C    -2.560000000     2.316000000    -2.014000000
C    -3.818000000     1.662000000    -1.753000000
C    -4.337000000     0.633000000    -2.573000000
H    -3.659000000     0.311000000    -3.359000000
C    -4.631000000     2.118000000    -0.682000000
H    -4.230000000     2.944000000    -0.101000000
O    -2.291000000     2.481000000    -3.477000000
H    -1.791000000     1.680000000    -1.552000000
C    -0.257000000     4.489000000    -1.679000000
C    -0.322000000     4.428000000    -3.134000000
H     0.348000000     5.123000000    -3.645000000
H    -1.272000000     4.861000000    -3.454000000
C     0.041000000     3.045000000    -3.740000000
C     1.325000000     2.600000000    -4.005000000
H     2.135000000     3.320000000    -3.920000000
C    -1.016000000     2.177000000    -3.975000000
C    -0.799000000     0.860000000    -4.507000000
H    -1.650000000     0.194000000    -4.623000000
C     0.487000000     0.400000000    -4.611000000
O     0.684000000    -0.881000000    -4.857000000
C     1.032000000    -1.733000000    -3.765000000
C     0.271000000    -3.031000000    -3.847000000
C    -1.040000000    -3.146000000    -4.396000000
H    -1.373000000    -2.324000000    -5.024000000
C     0.708000000    -4.059000000    -2.952000000
H     1.678000000    -4.071000000    -2.461000000
O     2.503000000    -1.964000000    -3.768000000
H     0.856000000    -1.305000000    -2.767000000
C     1.567000000     1.275000000    -4.385000000
C     2.999000000     0.789000000    -4.557000000
H     3.591000000     1.493000000    -5.147000000
H     2.941000000     0.000000000    -5.310000000
C     3.603000000     0.153000000    -3.364000000
C     3.328000000    -1.176000000    -2.994000000
C     3.796000000    -1.686000000    -1.819000000
H     3.669000000    -2.736000000    -1.570000000
C     4.519000000    -0.859000000    -0.973000000
O     4.717000000    -1.428000000     0.256000000
C     3.803000000    -1.059000000     1.258000000
H     2.857000000    -0.750000000     0.788000000
C     3.389000000    -2.310000000     2.085000000
C     2.910000000    -2.105000000     3.369000000
H     3.074000000    -1.102000000     3.755000000
C     3.420000000    -3.575000000     1.538000000
H     3.713000000    -3.696000000     0.499000000
C     3.180000000    -4.698000000     2.385000000
O     3.107000000    -5.960000000     1.913000000
C     2.518000000    -4.446000000     3.634000000
H     2.063000000    -5.236000000     4.226000000
C     2.427000000    -3.169000000     4.132000000
O     2.013000000    -2.953000000     5.403000000
C     2.019000000    -1.816000000     6.071000000
C     0.835000000    -1.107000000     6.267000000
H    -0.103000000    -1.454000000     5.841000000
C     3.238000000    -1.405000000     6.610000000
H     4.104000000    -2.026000000     6.394000000
C     3.240000000    -0.203000000     7.275000000
H     4.156000000     0.189000000     7.710000000
C     2.055000000     0.494000000     7.529000000
H     2.047000000     1.430000000     8.081000000
C     0.885000000     0.010000000     7.032000000
O    -0.256000000     0.782000000     7.133000000
C    -0.869000000     1.370000000     6.056000000
C    -2.210000000     1.193000000     5.815000000
H    -2.796000000     0.656000000     6.556000000
C    -2.756000000     1.705000000     4.648000000
O    -4.031000000     1.313000000     4.239000000
C    -4.930000000     2.117000000     3.679000000
C    -5.490000000     1.697000000     2.531000000
H    -5.194000000     0.720000000     2.155000000
C    -5.437000000     3.268000000     4.272000000
H    -5.080000000     3.750000000     5.179000000
C    -6.364000000     4.140000000     3.648000000
H    -6.649000000     5.055000000     4.160000000
C    -6.785000000     3.801000000     2.307000000
H    -7.444000000     4.442000000     1.727000000
C    -6.292000000     2.536000000     1.771000000
O    -6.758000000     2.140000000     0.527000000
C    -5.942000000     1.610000000    -0.469000000
C    -6.402000000     0.615000000    -1.341000000
H    -7.377000000     0.170000000    -1.158000000
C    -5.616000000     0.060000000    -2.321000000
O    -6.101000000    -1.019000000    -3.096000000
C    -5.472000000    -1.682000000    -4.107000000
C    -4.550000000    -2.690000000    -3.768000000
H    -4.488000000    -2.942000000    -2.713000000
C    -5.648000000    -1.270000000    -5.432000000
H    -6.263000000    -0.382000000    -5.556000000
C    -5.019000000    -1.875000000    -6.504000000
H    -4.907000000    -1.476000000    -7.509000000
C    -4.161000000    -2.935000000    -6.219000000
H    -3.625000000    -3.395000000    -7.045000000
C    -3.920000000    -3.341000000    -4.872000000
O    -3.125000000    -4.383000000    -4.641000000
C    -1.819000000    -4.254000000    -4.144000000
C    -1.388000000    -5.264000000    -3.270000000
H    -2.018000000    -6.101000000    -2.980000000
C    -0.095000000    -5.154000000    -2.714000000
O     0.238000000    -6.175000000    -1.867000000
C     1.474000000    -6.312000000    -1.311000000
C     2.573000000    -6.731000000    -2.103000000
H     2.406000000    -6.906000000    -3.163000000
C     3.812000000    -6.959000000    -1.538000000
H     4.592000000    -7.306000000    -2.211000000
C     4.095000000    -6.793000000    -0.226000000
H     5.067000000    -7.056000000     0.182000000
C     3.000000000    -6.285000000     0.542000000
C     1.711000000    -6.168000000     0.018000000
H     0.818000000    -6.082000000     0.631000000
C    -2.509000000    -1.314000000     0.533000000
H    -3.592000000    -1.226000000     0.548000000
C    -1.542000000    -0.286000000     0.196000000
H    -1.949000000     0.721000000     0.172000000
C    -0.216000000    -0.499000000    -0.097000000
C     0.767000000     0.669000000    -0.267000000
H     1.807000000     0.362000000    -0.136000000
H     0.590000000     0.889000000    -1.322000000
H     0.514000000     1.520000000     0.369000000
C     0.289000000    -1.782000000     0.016000000
H     1.343000000    -1.987000000    -0.154000000
C    -0.565000000    -2.828000000     0.353000000
H    -0.250000000    -3.868000000     0.315000000
C    -1.976000000    -2.621000000     0.555000000
C    -2.893000000    -3.787000000     0.728000000
O    -2.485000000    -4.880000000     1.021000000
O    -4.069000000    -3.610000000     0.714000000
O    -2.124000000    -2.470000000     3.967000000
H    -1.481000000    -1.777000000     3.816000000
H    -1.683000000    -3.272000000     3.686000000
O    -3.361000000    -3.251000000     6.373000000
H    -2.973000000    -2.866000000     7.159000000
H    -2.939000000    -2.791000000     5.647000000
O    -0.710000000    -8.157000000     2.862000000
H    -1.360000000    -8.700000000     2.415000000
H     0.132000000    -8.544000000     2.621000000
O    -5.160000000    -2.276000000     2.807000000
H    -4.350000000    -1.827000000     3.048000000
H    -4.954000000    -2.715000000     1.982000000
O    -1.892000000    -7.276000000    -0.083000000
H    -1.025000000    -7.089000000    -0.442000000
H    -2.255000000    -6.415000000     0.125000000
O    -0.665000000    -4.984000000     5.929000000
H    -0.757000000    -4.723000000     5.013000000
H    -0.579000000    -4.158000000     6.406000000
O    -4.791000000    -7.809000000    -0.498000000
H    -5.126000000    -8.565000000    -0.980000000
H    -3.864000000    -7.767000000    -0.731000000
O    -8.247000000    -4.032000000    -0.186000000
H    -9.014000000    -4.552000000    -0.428000000
H    -7.515000000    -4.470000000    -0.620000000
O    -4.060000000    -8.861000000     2.444000000
H    -4.077000000    -7.927000000     2.235000000
H    -3.661000000    -9.271000000     1.677000000
O    -6.857000000    -8.239000000     1.324000000
H    -6.466000000    -8.865000000     1.932000000
H    -6.223000000    -8.170000000     0.609000000
O    -4.101000000    -5.793000000     5.505000000
H    -4.512000000    -5.462000000     4.707000000
H    -3.737000000    -5.015000000     5.928000000
O    -5.590000000    -4.997000000    -1.123000000
H    -5.128000000    -4.459000000    -0.481000000
H    -5.399000000    -5.898000000    -0.862000000
O    -5.889000000    -5.968000000    -3.586000000
H    -5.298000000    -5.437000000    -4.121000000
H    -5.869000000    -5.553000000    -2.724000000
O    -7.962000000    -5.825000000     2.176000000
H    -7.770000000    -6.679000000     1.790000000
H    -8.035000000    -5.234000000     1.426000000
O    -1.735000000    -9.955000000     0.550000000
H    -1.633000000    -9.085000000     0.164000000
H    -1.984000000   -10.515000000    -0.184000000
O    -0.827000000    -5.085000000     2.995000000
H    -0.453000000    -5.957000000     2.870000000
H    -1.411000000    -4.964000000     2.247000000
O    -4.728000000    -5.758000000     2.690000000
H    -4.088000000    -5.283000000     2.159000000
H    -5.366000000    -6.088000000     2.057000000
O    -7.720000000    -2.330000000     2.011000000
H    -6.849000000    -2.394000000     2.403000000
H    -7.717000000    -2.984000000     1.312000000
O    -0.399000000    -0.438000000     3.027000000
H     0.180000000    -0.811000000     2.363000000
H    -0.963000000     0.164000000     2.542000000
