218
-1452.00206
C    -0.351000000     2.051000000     4.734000000
H    -0.784000000     2.976000000     4.363000000
C     0.871000000     1.570000000     4.357000000
C     1.342000000     0.361000000     4.935000000
H     2.348000000     0.038000000     4.679000000
C     1.482000000     2.217000000     3.087000000
O     1.125000000     3.681000000     2.968000000
H     1.167000000     1.662000000     2.191000000
O     2.939000000     2.230000000     3.215000000
C     3.679000000     1.932000000     2.112000000
C     3.963000000     0.583000000     1.959000000
H     3.680000000    -0.141000000     2.719000000
C     4.346000000     0.153000000     0.658000000
O     4.691000000    -1.171000000     0.609000000
C     4.645000000     1.030000000    -0.412000000
C     5.237000000     0.554000000    -1.701000000
H     5.667000000     1.461000000    -2.131000000
C     4.181000000     0.100000000    -2.654000000
C     3.581000000     0.886000000    -3.653000000
H     3.959000000     1.905000000    -3.673000000
H     6.064000000    -0.146000000    -1.566000000
C     4.261000000     2.367000000    -0.221000000
H     4.372000000     3.095000000    -1.020000000
C     3.865000000     2.822000000     1.052000000
C     3.370000000     4.261000000     1.178000000
H     3.890000000     4.960000000     0.520000000
H     3.494000000     4.560000000     2.221000000
C     1.918000000     4.312000000     0.756000000
C     1.673000000     4.674000000    -0.567000000
H     2.484000000     4.768000000    -1.285000000
C     0.932000000     4.142000000     1.688000000
C    -0.419000000     4.414000000     1.351000000
H    -1.208000000     4.253000000     2.081000000
C    -0.741000000     4.625000000     0.000000000
O    -2.057000000     4.520000000    -0.449000000
C    -2.562000000     3.283000000    -1.108000000
C    -3.769000000     2.721000000    -0.415000000
C    -4.735000000     2.049000000    -1.087000000
H    -4.644000000     1.810000000    -2.144000000
C    -3.975000000     3.034000000     0.960000000
H    -3.274000000     3.604000000     1.565000000
O    -2.725000000     3.424000000    -2.535000000
H    -1.786000000     2.518000000    -0.960000000
C     0.319000000     4.770000000    -0.930000000
C    -0.080000000     5.006000000    -2.428000000
H     0.732000000     5.602000000    -2.849000000
H    -0.949000000     5.667000000    -2.431000000
C    -0.367000000     3.737000000    -3.222000000
C     0.721000000     3.107000000    -3.841000000
H     1.673000000     3.625000000    -3.921000000
C    -1.647000000     3.120000000    -3.310000000
C    -1.818000000     2.008000000    -4.144000000
H    -2.786000000     1.514000000    -4.190000000
C    -0.719000000     1.407000000    -4.757000000
O    -0.957000000     0.102000000    -5.287000000
C    -0.307000000    -0.967000000    -4.605000000
C    -1.196000000    -2.200000000    -4.452000000
C    -2.526000000    -1.991000000    -4.050000000
H    -2.888000000    -0.978000000    -3.895000000
C    -0.729000000    -3.498000000    -4.426000000
H     0.257000000    -3.819000000    -4.753000000
O     0.996000000    -1.324000000    -5.000000000
H    -0.252000000    -0.640000000    -3.557000000
C     0.555000000     2.004000000    -4.690000000
C     1.754000000     1.300000000    -5.324000000
H     2.344000000     2.169000000    -5.624000000
H     1.502000000     0.771000000    -6.246000000
C     2.524000000     0.384000000    -4.350000000
C     2.019000000    -0.891000000    -4.173000000
C     2.503000000    -1.727000000    -3.157000000
H     2.109000000    -2.738000000    -3.212000000
C     3.646000000    -1.260000000    -2.471000000
O     4.068000000    -2.146000000    -1.541000000
C     3.689000000    -1.960000000    -0.167000000
H     2.742000000    -1.403000000    -0.104000000
C     3.386000000    -3.286000000     0.588000000
C     3.659000000    -3.376000000     1.957000000
H     4.210000000    -2.596000000     2.477000000
C     2.555000000    -4.259000000     0.006000000
H     2.138000000    -4.122000000    -0.989000000
C     2.197000000    -5.368000000     0.692000000
O     1.451000000    -6.426000000     0.040000000
C     2.512000000    -5.496000000     1.999000000
H     2.111000000    -6.372000000     2.502000000
C     3.141000000    -4.482000000     2.639000000
O     3.320000000    -4.738000000     3.974000000
C     3.325000000    -3.710000000     4.916000000
C     2.140000000    -3.009000000     5.187000000
H     1.216000000    -3.172000000     4.638000000
C     4.419000000    -3.558000000     5.701000000
H     5.244000000    -4.263000000     5.634000000
C     4.420000000    -2.693000000     6.795000000
H     5.268000000    -2.737000000     7.474000000
C     3.291000000    -1.979000000     7.036000000
H     3.188000000    -1.310000000     7.887000000
C     2.112000000    -2.107000000     6.249000000
O     0.992000000    -1.403000000     6.593000000
C     0.597000000    -0.236000000     5.965000000
C    -0.610000000     0.346000000     6.380000000
H    -1.080000000    -0.151000000     7.224000000
C    -1.106000000     1.470000000     5.740000000
O    -2.334000000     2.003000000     6.175000000
C    -3.031000000     3.041000000     5.592000000
C    -3.942000000     2.697000000     4.623000000
H    -4.138000000     1.635000000     4.494000000
C    -2.783000000     4.412000000     5.773000000
H    -2.011000000     4.732000000     6.468000000
C    -3.515000000     5.380000000     5.048000000
H    -3.205000000     6.422000000     5.038000000
C    -4.438000000     4.970000000     4.144000000
H    -4.945000000     5.682000000     3.498000000
C    -4.622000000     3.605000000     3.857000000
O    -5.506000000     3.078000000     2.930000000
C    -5.151000000     2.647000000     1.600000000
C    -6.088000000     1.935000000     0.925000000
H    -7.013000000     1.656000000     1.423000000
C    -5.911000000     1.716000000    -0.411000000
O    -6.828000000     1.113000000    -1.185000000
C    -6.546000000     0.165000000    -2.174000000
C    -5.424000000    -0.738000000    -2.134000000
H    -4.688000000    -0.679000000    -1.336000000
C    -7.504000000    -0.054000000    -3.145000000
H    -8.303000000     0.683000000    -3.160000000
C    -7.469000000    -1.139000000    -3.992000000
H    -8.256000000    -1.306000000    -4.723000000
C    -6.425000000    -2.101000000    -3.820000000
H    -6.384000000    -2.974000000    -4.465000000
C    -5.404000000    -1.819000000    -2.957000000
O    -4.467000000    -2.737000000    -2.758000000
C    -3.312000000    -3.014000000    -3.459000000
C    -2.786000000    -4.285000000    -3.367000000
H    -3.488000000    -5.041000000    -3.026000000
C    -1.499000000    -4.537000000    -3.836000000
O    -1.045000000    -5.835000000    -3.864000000
C     0.134000000    -6.142000000    -3.271000000
C     1.206000000    -6.521000000    -4.115000000
H     1.078000000    -6.475000000    -5.194000000
C     2.419000000    -6.873000000    -3.481000000
H     3.296000000    -7.028000000    -4.104000000
C     2.535000000    -6.835000000    -2.083000000
H     3.475000000    -6.985000000    -1.559000000
C     1.410000000    -6.522000000    -1.321000000
C     0.236000000    -6.140000000    -1.923000000
H    -0.589000000    -5.709000000    -1.360000000
C    -2.140000000    -0.300000000     1.553000000
H    -2.751000000     0.069000000     2.373000000
C    -1.210000000     0.596000000     0.953000000
H    -1.036000000     1.598000000     1.336000000
C    -0.461000000     0.193000000    -0.166000000
C     0.427000000     1.084000000    -0.912000000
H     0.178000000     2.086000000    -0.554000000
H     1.482000000     1.034000000    -0.636000000
H     0.324000000     1.091000000    -1.999000000
C    -0.624000000    -1.066000000    -0.767000000
H    -0.036000000    -1.424000000    -1.607000000
C    -1.530000000    -1.933000000    -0.198000000
H    -1.694000000    -2.931000000    -0.597000000
C    -2.258000000    -1.649000000     0.985000000
C    -3.368000000    -2.633000000     1.477000000
O    -3.549000000    -3.678000000     0.944000000
O    -4.071000000    -2.355000000     2.396000000
O    -3.537000000    -0.835000000     4.555000000
H    -3.732000000    -1.186000000     3.686000000
H    -2.944000000    -1.477000000     4.945000000
O    -1.520000000    -2.640000000     4.992000000
H    -1.353000000    -2.942000000     5.885000000
H    -0.898000000    -1.924000000     4.861000000
O    -4.601000000    -0.717000000     7.242000000
H    -4.524000000     0.025000000     7.843000000
H    -4.251000000    -0.392000000     6.413000000
O    -6.281000000    -3.102000000     0.615000000
H    -5.423000000    -3.494000000     0.453000000
H    -6.148000000    -2.544000000     1.381000000
O    -6.074000000    -5.187000000    -1.507000000
H    -7.011000000    -5.096000000    -1.683000000
H    -5.761000000    -4.289000000    -1.401000000
O    -2.694000000    -8.493000000    -1.290000000
H    -1.800000000    -8.731000000    -1.044000000
H    -2.785000000    -7.582000000    -1.012000000
O    -8.158000000    -5.034000000     1.187000000
H    -7.538000000    -4.305000000     1.176000000
H    -7.700000000    -5.731000000     1.657000000
O    -3.592000000    -5.983000000    -0.171000000
H    -3.498000000    -5.078000000     0.127000000
H    -4.495000000    -6.039000000    -0.483000000
O    -3.851000000    -4.558000000     6.399000000
H    -3.618000000    -5.472000000     6.562000000
H    -4.026000000    -4.519000000     5.459000000
O    -6.172000000    -8.495000000     0.026000000
H    -5.918000000    -7.666000000     0.431000000
H    -6.884000000    -8.822000000     0.576000000
O    -4.763000000    -4.529000000     3.829000000
H    -4.530000000    -3.928000000     3.121000000
H    -4.849000000    -5.381000000     3.401000000
O     0.013000000    -8.133000000     2.782000000
H     0.565000000    -8.530000000     2.108000000
H    -0.752000000    -7.811000000     2.306000000
O    -6.976000000    -4.522000000     5.759000000
H    -6.351000000    -4.397000000     5.046000000
H    -7.049000000    -3.660000000     6.168000000
O    -6.940000000    -6.970000000     2.900000000
H    -6.662000000    -6.890000000     3.812000000
H    -7.401000000    -7.808000000     2.862000000
O     0.632000000    -6.197000000     4.823000000
H     0.274000000    -5.412000000     4.407000000
H     0.528000000    -6.885000000     4.166000000
O    -2.306000000    -7.195000000     1.774000000
H    -2.048000000    -6.377000000     2.198000000
H    -3.029000000    -6.949000000     1.197000000
O    -8.509000000    -1.360000000    -0.033000000
H    -9.035000000    -2.071000000     0.332000000
H    -7.634000000    -1.736000000    -0.131000000
O    -6.428000000    -1.559000000     3.073000000
H    -5.544000000    -1.836000000     2.832000000
H    -6.418000000    -1.533000000     4.030000000
O    -1.843000000    -4.798000000     3.074000000
H    -2.457000000    -4.482000000     2.412000000
H    -1.963000000    -4.204000000     3.815000000
