218
-1464.45898
C    -0.910000000     2.735000000     4.744000000
H    -1.168000000     3.735000000     4.407000000
C     0.337000000     2.258000000     4.306000000
C     0.738000000     1.045000000     4.941000000
H     1.662000000     0.588000000     4.596000000
C     1.028000000     2.806000000     3.083000000
O     0.642000000     4.187000000     2.755000000
H     0.728000000     2.297000000     2.155000000
O     2.420000000     2.847000000     3.261000000
C     3.207000000     2.412000000     2.166000000
C     3.780000000     1.116000000     2.240000000
H     3.677000000     0.498000000     3.129000000
C     4.277000000     0.663000000     1.074000000
O     4.688000000    -0.669000000     1.073000000
C     4.548000000     1.470000000    -0.087000000
C     5.315000000     0.819000000    -1.306000000
H     5.791000000     1.614000000    -1.885000000
C     4.406000000     0.051000000    -2.195000000
C     3.783000000     0.759000000    -3.286000000
H     4.016000000     1.800000000    -3.495000000
H     6.183000000     0.282000000    -0.918000000
C     4.014000000     2.702000000    -0.137000000
H     4.169000000     3.273000000    -1.049000000
C     3.412000000     3.235000000     1.032000000
C     2.894000000     4.689000000     1.091000000
H     3.397000000     5.379000000     0.411000000
H     3.011000000     5.115000000     2.090000000
C     1.448000000     4.662000000     0.563000000
C     1.165000000     4.777000000    -0.791000000
H     2.028000000     4.979000000    -1.419000000
C     0.408000000     4.517000000     1.458000000
C    -0.860000000     4.453000000     1.025000000
H    -1.606000000     4.206000000     1.777000000
C    -1.221000000     4.662000000    -0.307000000
O    -2.464000000     4.370000000    -0.713000000
C    -2.731000000     3.069000000    -1.324000000
C    -4.046000000     2.450000000    -0.858000000
C    -4.833000000     1.713000000    -1.794000000
H    -4.613000000     1.560000000    -2.848000000
C    -4.383000000     2.566000000     0.485000000
H    -3.755000000     3.171000000     1.134000000
O    -2.625000000     3.130000000    -2.733000000
H    -1.937000000     2.391000000    -0.979000000
C    -0.184000000     4.744000000    -1.228000000
C    -0.303000000     4.811000000    -2.726000000
H     0.481000000     5.365000000    -3.247000000
H    -1.190000000     5.391000000    -2.992000000
C    -0.325000000     3.381000000    -3.281000000
C     0.847000000     2.781000000    -3.779000000
H     1.759000000     3.372000000    -3.796000000
C    -1.456000000     2.633000000    -3.258000000
C    -1.473000000     1.327000000    -3.767000000
H    -2.400000000     0.772000000    -3.649000000
C    -0.378000000     0.783000000    -4.403000000
O    -0.401000000    -0.505000000    -4.786000000
C     0.128000000    -1.452000000    -3.912000000
C    -0.731000000    -2.682000000    -3.872000000
C    -2.141000000    -2.555000000    -3.911000000
H    -2.554000000    -1.591000000    -4.196000000
C    -0.185000000    -3.929000000    -3.672000000
H     0.899000000    -4.005000000    -3.633000000
O     1.462000000    -1.712000000    -4.389000000
H     0.065000000    -1.108000000    -2.869000000
C     0.844000000     1.543000000    -4.445000000
C     2.077000000     0.999000000    -5.074000000
H     2.720000000     1.775000000    -5.496000000
H     1.775000000     0.368000000    -5.912000000
C     2.805000000     0.210000000    -4.063000000
C     2.444000000    -1.085000000    -3.736000000
C     3.044000000    -1.864000000    -2.768000000
H     2.903000000    -2.919000000    -2.546000000
C     3.958000000    -1.247000000    -1.945000000
O     4.482000000    -1.985000000    -0.881000000
C     3.941000000    -1.696000000     0.387000000
H     2.953000000    -1.313000000     0.093000000
C     3.711000000    -2.993000000     1.168000000
C     3.705000000    -2.866000000     2.534000000
H     4.053000000    -2.023000000     3.126000000
C     3.401000000    -4.144000000     0.529000000
H     3.411000000    -4.181000000    -0.558000000
C     3.057000000    -5.342000000     1.222000000
O     2.533000000    -6.477000000     0.567000000
C     3.128000000    -5.251000000     2.611000000
H     2.866000000    -6.144000000     3.173000000
C     3.467000000    -4.063000000     3.309000000
O     3.561000000    -4.026000000     4.687000000
C     3.081000000    -3.013000000     5.504000000
C     1.769000000    -2.478000000     5.366000000
H     1.199000000    -2.877000000     4.531000000
C     3.903000000    -2.659000000     6.625000000
H     4.829000000    -3.211000000     6.770000000
C     3.538000000    -1.630000000     7.439000000
H     4.253000000    -1.433000000     8.233000000
C     2.288000000    -1.017000000     7.267000000
H     2.043000000    -0.377000000     8.110000000
C     1.374000000    -1.487000000     6.310000000
O     0.137000000    -1.078000000     6.225000000
C    -0.161000000     0.258000000     5.768000000
C    -1.401000000     0.770000000     6.015000000
H    -2.138000000     0.178000000     6.552000000
C    -1.771000000     2.000000000     5.563000000
O    -2.990000000     2.552000000     6.042000000
C    -3.860000000     3.154000000     5.163000000
C    -4.548000000     2.331000000     4.278000000
H    -4.496000000     1.269000000     4.503000000
C    -3.992000000     4.525000000     5.102000000
H    -3.390000000     5.067000000     5.828000000
C    -4.750000000     5.082000000     4.107000000
H    -4.758000000     6.161000000     3.980000000
C    -5.347000000     4.314000000     3.083000000
H    -5.990000000     4.717000000     2.304000000
C    -5.240000000     2.874000000     3.187000000
O    -5.953000000     2.061000000     2.292000000
C    -5.466000000     1.910000000     0.977000000
C    -6.269000000     1.196000000     0.124000000
H    -7.200000000     0.758000000     0.473000000
C    -5.932000000     1.012000000    -1.287000000
O    -6.765000000     0.378000000    -2.114000000
C    -6.268000000    -0.479000000    -3.120000000
C    -5.489000000    -1.550000000    -2.806000000
H    -5.409000000    -1.813000000    -1.754000000
C    -6.387000000    -0.093000000    -4.437000000
H    -6.896000000     0.786000000    -4.826000000
C    -5.950000000    -0.979000000    -5.402000000
H    -6.067000000    -0.744000000    -6.457000000
C    -5.316000000    -2.164000000    -5.058000000
H    -4.943000000    -2.798000000    -5.858000000
C    -5.028000000    -2.411000000    -3.771000000
O    -4.315000000    -3.570000000    -3.403000000
C    -2.926000000    -3.581000000    -3.469000000
C    -2.334000000    -4.867000000    -3.332000000
H    -2.886000000    -5.689000000    -2.884000000
C    -0.934000000    -5.053000000    -3.423000000
O    -0.504000000    -6.317000000    -3.164000000
C     0.715000000    -6.451000000    -2.584000000
C     1.906000000    -6.426000000    -3.456000000
H     1.840000000    -6.508000000    -4.538000000
C     3.230000000    -6.498000000    -3.002000000
H     4.038000000    -6.692000000    -3.703000000
C     3.404000000    -6.574000000    -1.647000000
H     4.348000000    -6.835000000    -1.176000000
C     2.283000000    -6.530000000    -0.769000000
C     0.950000000    -6.463000000    -1.218000000
H     0.125000000    -6.451000000    -0.510000000
C    -2.806000000    -0.258000000     2.153000000
H    -3.071000000    -0.015000000     3.178000000
C    -1.607000000     0.244000000     1.795000000
H    -1.153000000     0.880000000     2.550000000
C    -1.016000000    -0.061000000     0.590000000
C     0.322000000     0.543000000     0.176000000
H     0.637000000     0.307000000    -0.843000000
H     0.276000000     1.633000000     0.115000000
H     1.122000000     0.328000000     0.888000000
C    -1.776000000    -0.906000000    -0.304000000
H    -1.356000000    -1.070000000    -1.293000000
C    -3.026000000    -1.405000000     0.042000000
H    -3.475000000    -2.110000000    -0.653000000
C    -3.472000000    -1.147000000     1.356000000
C    -4.770000000    -1.773000000     1.898000000
O    -5.294000000    -2.604000000     1.200000000
O    -5.141000000    -1.558000000     3.071000000
O    -3.148000000    -1.967000000     4.841000000
H    -4.045000000    -2.046000000     4.515000000
H    -3.221000000    -2.129000000     5.782000000
O    -1.137000000    -2.745000000     2.976000000
H    -1.842000000    -2.639000000     3.614000000
H    -1.291000000    -2.053000000     2.332000000
O    -5.735000000    -0.655000000     6.718000000
H    -5.740000000    -0.241000000     7.581000000
H    -4.898000000    -1.118000000     6.679000000
O    -6.898000000    -3.639000000    -0.733000000
H    -6.285000000    -4.362000000    -0.865000000
H    -6.477000000    -3.086000000    -0.075000000
O    -5.139000000    -5.599000000    -1.344000000
H    -5.134000000    -6.500000000    -1.668000000
H    -5.073000000    -5.061000000    -2.133000000
O    -9.235000000    -3.218000000     0.505000000
H    -8.662000000    -3.624000000    -0.146000000
H    -8.684000000    -3.122000000     1.282000000
O    -4.007000000    -4.908000000     0.961000000
H    -4.503000000    -4.100000000     1.095000000
H    -4.218000000    -5.172000000     0.066000000
O    -5.555000000    -3.814000000     4.545000000
H    -5.610000000    -3.186000000     3.824000000
H    -5.655000000    -4.669000000     4.125000000
O    -7.268000000    -2.918000000     6.657000000
H    -6.928000000    -3.591000000     6.067000000
H    -6.539000000    -2.309000000     6.772000000
O    -5.475000000    -6.039000000     2.984000000
H    -5.299000000    -6.980000000     2.963000000
H    -5.168000000    -5.719000000     2.136000000
O    -7.676000000    -3.241000000     2.703000000
H    -6.957000000    -2.759000000     2.294000000
H    -7.906000000    -2.721000000     3.473000000
O    -8.663000000    -6.285000000     2.749000000
H    -7.911000000    -6.390000000     3.333000000
H    -8.766000000    -5.338000000     2.660000000
O    -3.479000000    -5.697000000     5.289000000
H    -3.985000000    -6.214000000     4.662000000
H    -3.676000000    -4.788000000     5.063000000
O    -7.506000000     2.346000000     5.609000000
H    -7.123000000     1.608000000     5.135000000
H    -7.922000000     2.877000000     4.931000000
O    -1.624000000    -5.330000000     1.843000000
H    -1.101000000    -4.550000000     1.658000000
H    -2.527000000    -5.057000000     1.679000000
O   -10.199000000    -0.619000000    -0.407000000
H   -10.653000000    -0.681000000     0.433000000
H    -9.588000000    -1.357000000    -0.404000000
O    -7.297000000    -0.451000000     4.423000000
H    -6.675000000    -0.697000000     3.739000000
H    -6.843000000    -0.648000000     5.242000000
O    -9.913000000    -0.857000000     4.960000000
H   -10.145000000    -0.179000000     5.595000000
H    -8.963000000    -0.785000000     4.869000000
O    -0.353000000    -4.925000000     4.429000000
H    -1.068000000    -5.501000000     4.160000000
H    -0.515000000    -4.106000000     3.960000000
