218
-1452.50363
C    -2.157000000     2.574000000     3.320000000
H    -2.569000000     2.749000000     2.329000000
C    -0.831000000     2.854000000     3.623000000
C    -0.400000000     2.512000000     4.859000000
H     0.659000000     2.533000000     5.104000000
C     0.072000000     3.295000000     2.563000000
O    -0.496000000     4.402000000     1.838000000
H     0.188000000     2.387000000     1.953000000
O     1.364000000     3.719000000     3.085000000
C     2.525000000     3.404000000     2.476000000
C     3.056000000     2.135000000     2.901000000
H     2.707000000     1.628000000     3.796000000
C     4.020000000     1.499000000     2.156000000
O     4.252000000     0.221000000     2.520000000
C     4.385000000     2.074000000     0.918000000
C     5.378000000     1.287000000     0.014000000
H     6.106000000     1.896000000    -0.526000000
C     4.596000000     0.395000000    -0.998000000
C     4.375000000     0.765000000    -2.323000000
H     4.633000000     1.764000000    -2.664000000
H     5.947000000     0.711000000     0.746000000
C     3.788000000     3.215000000     0.480000000
H     3.930000000     3.550000000    -0.544000000
C     2.823000000     3.854000000     1.213000000
C     2.128000000     5.143000000     0.731000000
H     2.851000000     5.762000000     0.197000000
H     1.746000000     5.817000000     1.500000000
C     0.959000000     4.776000000    -0.083000000
C     1.162000000     4.569000000    -1.440000000
H     2.110000000     4.791000000    -1.924000000
C    -0.259000000     4.421000000     0.504000000
C    -1.275000000     4.035000000    -0.333000000
H    -2.272000000     3.767000000     0.009000000
C    -1.063000000     3.943000000    -1.693000000
O    -2.223000000     3.635000000    -2.350000000
C    -2.310000000     2.234000000    -2.701000000
C    -3.695000000     1.710000000    -2.492000000
C    -4.141000000     0.507000000    -3.093000000
H    -3.470000000    -0.092000000    -3.703000000
C    -4.596000000     2.301000000    -1.575000000
H    -4.372000000     3.305000000    -1.223000000
O    -1.928000000     2.186000000    -4.056000000
H    -1.679000000     1.523000000    -2.147000000
C     0.147000000     4.320000000    -2.310000000
C     0.280000000     4.200000000    -3.815000000
H     1.048000000     4.834000000    -4.262000000
H    -0.537000000     4.585000000    -4.428000000
C     0.443000000     2.764000000    -4.270000000
C     1.701000000     2.225000000    -4.474000000
H     2.612000000     2.817000000    -4.503000000
C    -0.621000000     1.861000000    -4.416000000
C    -0.354000000     0.510000000    -4.683000000
H    -1.195000000    -0.165000000    -4.820000000
C     0.923000000    -0.059000000    -4.697000000
O     0.974000000    -1.471000000    -4.807000000
C     1.404000000    -2.212000000    -3.655000000
C     0.646000000    -3.555000000    -3.536000000
C    -0.544000000    -3.681000000    -4.211000000
H    -0.945000000    -2.843000000    -4.776000000
C     1.092000000    -4.583000000    -2.761000000
H     2.049000000    -4.517000000    -2.250000000
O     2.806000000    -2.348000000    -3.572000000
H     1.152000000    -1.600000000    -2.777000000
C     1.958000000     0.839000000    -4.576000000
C     3.400000000     0.298000000    -4.585000000
H     4.040000000     1.122000000    -4.906000000
H     3.509000000    -0.474000000    -5.349000000
C     3.833000000    -0.111000000    -3.217000000
C     3.563000000    -1.434000000    -2.823000000
C     3.750000000    -1.781000000    -1.459000000
H     3.475000000    -2.787000000    -1.152000000
C     4.215000000    -0.853000000    -0.489000000
O     4.353000000    -1.345000000     0.795000000
C     3.501000000    -0.779000000     1.780000000
H     2.608000000    -0.261000000     1.400000000
C     2.929000000    -1.957000000     2.690000000
C     2.566000000    -1.659000000     3.960000000
H     2.644000000    -0.641000000     4.332000000
C     2.858000000    -3.301000000     2.190000000
H     3.258000000    -3.575000000     1.217000000
C     2.249000000    -4.276000000     2.983000000
O     2.139000000    -5.574000000     2.629000000
C     1.868000000    -3.965000000     4.266000000
H     1.222000000    -4.639000000     4.822000000
C     1.978000000    -2.640000000     4.704000000
O     1.332000000    -2.472000000     5.926000000
C     1.373000000    -1.313000000     6.665000000
C     0.301000000    -0.390000000     6.564000000
H    -0.451000000    -0.732000000     5.858000000
C     2.332000000    -1.040000000     7.655000000
H     3.111000000    -1.726000000     7.975000000
C     2.229000000     0.141000000     8.432000000
H     2.992000000     0.242000000     9.199000000
C     1.192000000     1.009000000     8.273000000
H     1.223000000     1.899000000     8.896000000
C     0.190000000     0.814000000     7.291000000
O    -0.864000000     1.673000000     7.079000000
C    -1.305000000     1.999000000     5.773000000
C    -2.651000000     1.847000000     5.509000000
H    -3.355000000     1.470000000     6.246000000
C    -3.076000000     2.099000000     4.233000000
O    -4.383000000     1.804000000     3.851000000
C    -5.135000000     2.568000000     3.036000000
C    -5.512000000     2.051000000     1.793000000
H    -5.242000000     1.015000000     1.609000000
C    -5.507000000     3.857000000     3.361000000
H    -5.316000000     4.311000000     4.330000000
C    -6.329000000     4.626000000     2.524000000
H    -6.738000000     5.600000000     2.783000000
C    -6.862000000     4.037000000     1.378000000
H    -7.497000000     4.661000000     0.755000000
C    -6.380000000     2.772000000     0.939000000
O    -6.725000000     2.325000000    -0.337000000
C    -5.813000000     1.733000000    -1.217000000
C    -6.191000000     0.517000000    -1.833000000
H    -7.137000000     0.080000000    -1.524000000
C    -5.328000000    -0.132000000    -2.661000000
O    -5.696000000    -1.364000000    -3.043000000
C    -4.980000000    -2.039000000    -4.019000000
C    -4.110000000    -3.095000000    -3.760000000
H    -4.044000000    -3.407000000    -2.720000000
C    -4.935000000    -1.491000000    -5.360000000
H    -5.593000000    -0.646000000    -5.549000000
C    -4.200000000    -2.083000000    -6.339000000
H    -4.180000000    -1.614000000    -7.319000000
C    -3.381000000    -3.225000000    -6.057000000
H    -2.666000000    -3.670000000    -6.744000000
C    -3.368000000    -3.701000000    -4.745000000
O    -2.691000000    -4.843000000    -4.488000000
C    -1.411000000    -4.728000000    -3.884000000
C    -0.990000000    -5.819000000    -3.089000000
H    -1.626000000    -6.691000000    -2.957000000
C     0.303000000    -5.762000000    -2.587000000
O     0.806000000    -6.897000000    -1.904000000
C     1.725000000    -6.753000000    -0.880000000
C     3.038000000    -7.275000000    -1.020000000
H     3.196000000    -7.911000000    -1.887000000
C     4.056000000    -7.039000000    -0.134000000
H     5.021000000    -7.517000000    -0.279000000
C     3.708000000    -6.413000000     1.087000000
H     4.378000000    -6.423000000     1.943000000
C     2.406000000    -6.001000000     1.340000000
C     1.399000000    -6.121000000     0.319000000
H     0.368000000    -5.834000000     0.509000000
C    -3.138000000    -1.055000000     0.348000000
H    -4.099000000    -0.672000000     0.683000000
C    -2.017000000    -0.247000000     0.213000000
H    -2.062000000     0.777000000     0.576000000
C    -0.791000000    -0.751000000    -0.253000000
C     0.345000000     0.169000000    -0.509000000
H     1.334000000    -0.249000000    -0.310000000
H     0.272000000     0.443000000    -1.564000000
H     0.288000000     0.981000000     0.219000000
C    -0.587000000    -2.084000000    -0.398000000
H     0.422000000    -2.449000000    -0.574000000
C    -1.682000000    -2.927000000    -0.222000000
H    -1.509000000    -3.996000000    -0.129000000
C    -3.007000000    -2.360000000     0.098000000
C    -4.201000000    -3.329000000     0.279000000
O    -4.178000000    -4.537000000    -0.149000000
O    -5.202000000    -2.989000000     0.903000000
O    -0.748000000    -3.270000000     2.885000000
H    -1.146000000    -2.680000000     2.245000000
H    -0.065000000    -2.746000000     3.302000000
O    -4.691000000    -7.248000000     3.291000000
H    -5.170000000    -6.561000000     2.828000000
H    -3.818000000    -6.881000000     3.427000000
O    -6.407000000    -5.456000000     1.488000000
H    -5.939000000    -4.696000000     1.141000000
H    -7.030000000    -5.688000000     0.799000000
O    -5.860000000    -7.224000000    -4.591000000
H    -5.833000000    -8.130000000    -4.284000000
H    -5.781000000    -6.699000000    -3.794000000
O    -2.536000000    -6.558000000    -0.108000000
H    -3.067000000    -7.276000000    -0.453000000
H    -3.003000000    -5.766000000    -0.374000000
O    -4.223000000    -8.572000000    -0.696000000
H    -4.638000000    -9.136000000    -1.348000000
H    -4.516000000    -8.922000000     0.145000000
O    -2.360000000    -5.655000000     2.786000000
H    -1.879000000    -4.836000000     2.665000000
H    -2.577000000    -5.939000000     1.897000000
O    -7.639000000    -2.967000000    -0.781000000
H    -7.295000000    -2.647000000     0.053000000
H    -6.876000000    -3.004000000    -1.357000000
O    -7.835000000    -6.310000000     3.919000000
H    -7.455000000    -5.874000000     3.156000000
H    -7.442000000    -7.183000000     3.917000000
O    -4.905000000    -2.605000000     3.541000000
H    -4.895000000    -2.392000000     2.608000000
H    -5.682000000    -3.152000000     3.653000000
O    -1.009000000    -5.973000000     5.364000000
H    -1.172000000    -5.983000000     4.421000000
H    -1.832000000    -5.670000000     5.747000000
O    -5.905000000    -5.805000000    -2.243000000
H    -6.606000000    -5.959000000    -1.610000000
H    -5.181000000    -5.459000000    -1.720000000
O    -9.045000000    -5.652000000    -3.082000000
H    -8.602000000    -5.664000000    -2.233000000
H    -9.896000000    -5.253000000    -2.902000000
O   -10.368000000    -3.734000000    -0.864000000
H    -9.515000000    -3.299000000    -0.858000000
H   -10.869000000    -3.289000000    -0.180000000
O    -8.108000000    -6.614000000    -0.354000000
H    -7.854000000    -7.536000000    -0.347000000
H    -8.957000000    -6.595000000     0.089000000
O    -2.498000000    -2.678000000     5.347000000
H    -3.328000000    -2.331000000     5.020000000
H    -1.963000000    -2.800000000     4.563000000
O    -4.259000000    -6.241000000     6.233000000
H    -4.432000000    -5.915000000     5.349000000
H    -3.986000000    -5.466000000     6.725000000
O    -6.116000000    -2.424000000     6.010000000
H    -5.921000000    -1.654000000     6.544000000
H    -5.559000000    -2.327000000     5.237000000
O    -2.197000000    -8.861000000     1.858000000
H    -2.486000000    -8.203000000     1.225000000
H    -2.125000000    -9.668000000     1.348000000
