218
-1462.25957
C    -2.376000000     2.368000000     3.607000000
H    -2.788000000     3.046000000     2.863000000
C    -1.036000000     2.436000000     3.960000000
C    -0.622000000     1.678000000     5.050000000
H     0.385000000     1.868000000     5.413000000
C    -0.098000000     3.112000000     2.968000000
O    -0.729000000     4.368000000     2.458000000
H     0.082000000     2.479000000     2.086000000
O     1.131000000     3.375000000     3.574000000
C     2.344000000     3.076000000     2.820000000
C     2.924000000     1.889000000     3.095000000
H     2.611000000     1.273000000     3.934000000
C     3.812000000     1.332000000     2.226000000
O     4.345000000     0.051000000     2.370000000
C     4.221000000     2.058000000     1.085000000
C     5.303000000     1.648000000     0.108000000
H     5.727000000     2.538000000    -0.359000000
C     4.748000000     0.687000000    -0.981000000
C     4.362000000     1.195000000    -2.154000000
H     4.522000000     2.241000000    -2.403000000
H     6.112000000     1.116000000     0.613000000
C     3.672000000     3.270000000     0.751000000
H     3.922000000     3.799000000    -0.165000000
C     2.633000000     3.759000000     1.626000000
C     1.867000000     5.120000000     1.250000000
H     2.465000000     5.837000000     0.683000000
H     1.525000000     5.631000000     2.152000000
C     0.564000000     4.947000000     0.485000000
C     0.662000000     4.984000000    -0.888000000
H     1.589000000     5.293000000    -1.365000000
C    -0.601000000     4.516000000     1.106000000
C    -1.712000000     4.273000000     0.311000000
H    -2.644000000     4.100000000     0.843000000
C    -1.616000000     4.230000000    -1.094000000
O    -2.680000000     3.733000000    -1.870000000
C    -2.638000000     2.343000000    -2.267000000
C    -3.930000000     1.690000000    -2.167000000
C    -4.186000000     0.452000000    -2.851000000
H    -3.543000000     0.041000000    -3.624000000
C    -4.872000000     2.150000000    -1.285000000
H    -4.756000000     3.075000000    -0.726000000
O    -2.202000000     2.387000000    -3.656000000
H    -1.911000000     1.791000000    -1.653000000
C    -0.400000000     4.628000000    -1.707000000
C    -0.253000000     4.598000000    -3.225000000
H     0.603000000     5.234000000    -3.460000000
H    -1.155000000     4.927000000    -3.745000000
C     0.148000000     3.154000000    -3.703000000
C     1.477000000     2.748000000    -3.874000000
H     2.247000000     3.476000000    -3.633000000
C    -0.869000000     2.153000000    -3.961000000
C    -0.478000000     0.874000000    -4.333000000
H    -1.231000000     0.090000000    -4.342000000
C     0.842000000     0.544000000    -4.574000000
O     1.122000000    -0.799000000    -4.814000000
C     1.504000000    -1.585000000    -3.676000000
C     0.751000000    -2.946000000    -3.644000000
C    -0.607000000    -3.095000000    -4.049000000
H    -1.026000000    -2.196000000    -4.494000000
C     1.299000000    -4.049000000    -3.100000000
H     2.334000000    -3.956000000    -2.782000000
O     2.927000000    -1.733000000    -3.745000000
H     1.199000000    -0.981000000    -2.809000000
C     1.830000000     1.466000000    -4.288000000
C     3.330000000     1.130000000    -4.290000000
H     3.958000000     1.999000000    -4.496000000
H     3.453000000     0.509000000    -5.180000000
C     3.769000000     0.401000000    -3.101000000
C     3.600000000    -0.961000000    -2.839000000
C     4.049000000    -1.490000000    -1.693000000
H     3.835000000    -2.529000000    -1.457000000
C     4.507000000    -0.659000000    -0.686000000
O     4.619000000    -1.231000000     0.528000000
C     3.663000000    -0.912000000     1.520000000
H     2.713000000    -0.603000000     1.060000000
C     3.273000000    -2.202000000     2.335000000
C     3.058000000    -2.106000000     3.724000000
H     3.118000000    -1.100000000     4.131000000
C     3.091000000    -3.446000000     1.731000000
H     3.247000000    -3.473000000     0.656000000
C     2.664000000    -4.564000000     2.437000000
O     2.701000000    -5.838000000     1.946000000
C     2.437000000    -4.424000000     3.799000000
H     2.076000000    -5.295000000     4.339000000
C     2.534000000    -3.214000000     4.381000000
O     2.495000000    -3.083000000     5.789000000
C     2.037000000    -1.896000000     6.394000000
C     0.736000000    -1.426000000     6.185000000
H     0.072000000    -1.994000000     5.537000000
C     2.791000000    -1.287000000     7.393000000
H     3.715000000    -1.809000000     7.627000000
C     2.294000000    -0.228000000     8.143000000
H     2.941000000     0.078000000     8.962000000
C     1.099000000     0.327000000     7.830000000
H     0.706000000     1.185000000     8.369000000
C     0.225000000    -0.359000000     6.936000000
O    -0.990000000     0.011000000     6.738000000
C    -1.458000000     0.812000000     5.715000000
C    -2.826000000     0.764000000     5.345000000
H    -3.442000000    -0.026000000     5.767000000
C    -3.321000000     1.597000000     4.358000000
O    -4.615000000     1.398000000     3.951000000
C    -5.381000000     2.224000000     3.131000000
C    -5.825000000     1.699000000     1.911000000
H    -5.476000000     0.715000000     1.609000000
C    -5.700000000     3.509000000     3.521000000
H    -5.312000000     3.841000000     4.481000000
C    -6.426000000     4.326000000     2.660000000
H    -6.662000000     5.330000000     3.002000000
C    -6.764000000     3.825000000     1.415000000
H    -7.227000000     4.439000000     0.647000000
C    -6.521000000     2.506000000     1.073000000
O    -6.999000000     2.027000000    -0.178000000
C    -6.118000000     1.470000000    -1.080000000
C    -6.438000000     0.373000000    -1.790000000
H    -7.347000000    -0.216000000    -1.696000000
C    -5.472000000    -0.117000000    -2.663000000
O    -5.901000000    -1.233000000    -3.389000000
C    -5.172000000    -1.793000000    -4.385000000
C    -4.303000000    -2.808000000    -3.976000000
H    -4.368000000    -3.301000000    -3.009000000
C    -5.095000000    -1.323000000    -5.678000000
H    -5.946000000    -0.732000000    -6.007000000
C    -4.188000000    -1.902000000    -6.600000000
H    -4.275000000    -1.620000000    -7.646000000
C    -3.255000000    -2.836000000    -6.139000000
H    -2.628000000    -3.371000000    -6.848000000
C    -3.365000000    -3.326000000    -4.854000000
O    -2.644000000    -4.440000000    -4.404000000
C    -1.316000000    -4.317000000    -3.973000000
C    -0.621000000    -5.499000000    -3.502000000
H    -1.160000000    -6.423000000    -3.308000000
C     0.682000000    -5.342000000    -2.975000000
O     1.295000000    -6.483000000    -2.574000000
C     2.276000000    -6.470000000    -1.619000000
C     3.468000000    -7.181000000    -1.877000000
H     3.778000000    -7.414000000    -2.893000000
C     4.455000000    -7.282000000    -0.882000000
H     5.379000000    -7.811000000    -1.100000000
C     4.127000000    -6.852000000     0.403000000
H     4.862000000    -7.013000000     1.188000000
C     3.010000000    -6.112000000     0.678000000
C     2.172000000    -5.781000000    -0.423000000
H     1.327000000    -5.166000000    -0.123000000
C    -2.404000000    -0.593000000     1.059000000
H    -3.255000000    -0.285000000     1.662000000
C    -1.439000000     0.315000000     0.600000000
H    -1.604000000     1.375000000     0.777000000
C    -0.268000000    -0.218000000     0.002000000
C     0.882000000     0.716000000    -0.464000000
H     0.474000000     1.554000000    -1.033000000
H     1.432000000     1.105000000     0.396000000
H     1.536000000     0.130000000    -1.113000000
C    -0.127000000    -1.625000000    -0.154000000
H     0.763000000    -2.041000000    -0.619000000
C    -1.152000000    -2.484000000     0.243000000
H    -1.032000000    -3.541000000     0.018000000
C    -2.280000000    -1.987000000     0.828000000
C    -3.376000000    -2.976000000     1.186000000
O    -3.271000000    -4.191000000     1.013000000
O    -4.452000000    -2.485000000     1.494000000
O    -3.253000000    -5.031000000     3.495000000
H    -3.165000000    -4.270000000     4.068000000
H    -3.102000000    -4.688000000     2.615000000
O    -6.265000000    -4.328000000     2.132000000
H    -5.693000000    -3.563000000     2.068000000
H    -5.963000000    -4.912000000     1.436000000
O    -4.859000000    -8.565000000     0.587000000
H    -4.204000000    -9.203000000     0.302000000
H    -5.692000000    -8.925000000     0.282000000
O    -1.566000000    -6.345000000     0.287000000
H    -1.069000000    -5.875000000    -0.383000000
H    -2.282000000    -5.752000000     0.514000000
O    -4.909000000    -5.763000000    -0.205000000
H    -4.351000000    -5.191000000     0.323000000
H    -4.709000000    -6.645000000     0.107000000
O    -1.650000000    -6.455000000     5.600000000
H    -2.003000000    -6.012000000     4.829000000
H    -0.917000000    -5.905000000     5.878000000
O    -6.710000000    -1.850000000     0.174000000
H    -5.825000000    -1.948000000     0.527000000
H    -6.770000000    -2.516000000    -0.510000000
O    -8.833000000    -5.628000000     1.599000000
H    -8.096000000    -5.211000000     2.044000000
H    -8.526000000    -6.514000000     1.406000000
O    -5.899000000    -1.029000000     3.335000000
H    -5.172000000    -0.478000000     3.626000000
H    -5.505000000    -1.629000000     2.702000000
O    -8.493000000    -2.354000000     3.025000000
H    -7.868000000    -2.752000000     2.419000000
H    -7.997000000    -2.229000000     3.834000000
O    -8.000000000    -3.920000000    -1.534000000
H    -8.847000000    -3.883000000    -1.089000000
H    -8.079000000    -4.660000000    -2.136000000
O    -8.996000000    -0.554000000     0.779000000
H    -8.789000000    -0.748000000     1.693000000
H    -8.229000000    -0.855000000     0.291000000
O    -8.071000000     0.268000000     4.645000000
H    -7.844000000     0.990000000     5.230000000
H    -7.228000000    -0.082000000     4.358000000
O    -5.044000000    -7.004000000     3.431000000
H    -4.412000000    -6.295000000     3.312000000
H    -4.894000000    -7.586000000     2.685000000
O    -5.875000000    -6.634000000    -2.400000000
H    -5.618000000    -6.213000000    -1.579000000
H    -6.831000000    -6.651000000    -2.372000000
O    -1.756000000    -8.268000000     2.301000000
H    -1.411000000    -7.659000000     1.648000000
H    -2.292000000    -8.881000000     1.797000000
O    -6.810000000    -4.908000000     4.676000000
H    -6.469000000    -5.791000000     4.815000000
H    -6.648000000    -4.732000000     3.749000000
O    -2.886000000    -3.383000000     5.707000000
H    -2.848000000    -2.620000000     6.284000000
H    -2.644000000    -4.120000000     6.268000000
O    -6.399000000    -3.520000000     6.881000000
H    -5.993000000    -2.706000000     6.581000000
H    -6.551000000    -4.021000000     6.079000000
