218
-1477.61166
C    -2.143000000     2.399000000     4.384000000
H    -2.782000000     2.841000000     3.624000000
C    -0.742000000     2.280000000     4.348000000
C    -0.098000000     1.537000000     5.350000000
H     0.983000000     1.432000000     5.327000000
C     0.145000000     2.853000000     3.218000000
O    -0.357000000     4.139000000     2.800000000
H     0.138000000     2.123000000     2.395000000
O     1.443000000     3.045000000     3.689000000
C     2.457000000     2.681000000     2.782000000
C     2.946000000     1.378000000     2.834000000
H     2.467000000     0.693000000     3.529000000
C     4.022000000     0.919000000     2.037000000
O     4.292000000    -0.410000000     2.138000000
C     4.533000000     1.733000000     1.021000000
C     5.527000000     1.246000000    -0.032000000
H     6.185000000     2.058000000    -0.347000000
C     4.769000000     0.479000000    -1.138000000
C     4.363000000     1.163000000    -2.263000000
H     4.542000000     2.232000000    -2.338000000
H     6.247000000     0.541000000     0.388000000
C     3.893000000     3.003000000     0.950000000
H     4.146000000     3.592000000     0.072000000
C     2.990000000     3.580000000     1.841000000
C     2.317000000     4.902000000     1.602000000
H     2.921000000     5.692000000     1.152000000
H     2.114000000     5.402000000     2.551000000
C     0.992000000     4.823000000     0.801000000
C     0.956000000     4.913000000    -0.621000000
H     1.798000000     5.306000000    -1.183000000
C    -0.183000000     4.515000000     1.502000000
C    -1.376000000     4.316000000     0.781000000
H    -2.305000000     4.175000000     1.328000000
C    -1.394000000     4.331000000    -0.638000000
O    -2.575000000     3.987000000    -1.351000000
C    -2.573000000     2.718000000    -2.018000000
C    -3.775000000     1.841000000    -1.736000000
C    -4.521000000     1.355000000    -2.815000000
H    -4.216000000     1.527000000    -3.844000000
C    -4.185000000     1.623000000    -0.441000000
H    -3.521000000     2.005000000     0.330000000
O    -2.210000000     2.879000000    -3.407000000
H    -1.749000000     2.085000000    -1.657000000
C    -0.261000000     4.680000000    -1.303000000
C    -0.204000000     4.741000000    -2.786000000
H     0.529000000     5.500000000    -3.068000000
H    -1.116000000     5.147000000    -3.226000000
C     0.087000000     3.429000000    -3.469000000
C     1.422000000     3.024000000    -3.697000000
H     2.183000000     3.772000000    -3.490000000
C    -0.963000000     2.596000000    -3.782000000
C    -0.728000000     1.438000000    -4.485000000
H    -1.511000000     0.705000000    -4.663000000
C     0.585000000     1.048000000    -4.787000000
O     0.899000000    -0.207000000    -5.203000000
C     1.177000000    -1.131000000    -4.157000000
C     0.222000000    -2.364000000    -4.165000000
C    -0.998000000    -2.433000000    -4.868000000
H    -1.272000000    -1.600000000    -5.510000000
C     0.634000000    -3.488000000    -3.401000000
H     1.557000000    -3.458000000    -2.828000000
O     2.551000000    -1.445000000    -4.112000000
H     0.958000000    -0.714000000    -3.163000000
C     1.686000000     1.833000000    -4.348000000
C     3.119000000     1.407000000    -4.401000000
H     3.798000000     2.260000000    -4.463000000
H     3.360000000     0.931000000    -5.353000000
C     3.552000000     0.613000000    -3.208000000
C     3.405000000    -0.774000000    -3.288000000
C     3.800000000    -1.496000000    -2.202000000
H     3.471000000    -2.525000000    -2.075000000
C     4.428000000    -0.908000000    -1.058000000
O     4.540000000    -1.601000000     0.088000000
C     3.662000000    -1.363000000     1.259000000
H     2.723000000    -0.880000000     0.950000000
C     3.338000000    -2.642000000     2.031000000
C     2.968000000    -2.562000000     3.417000000
H     2.943000000    -1.584000000     3.892000000
C     3.229000000    -3.788000000     1.300000000
H     3.584000000    -3.738000000     0.274000000
C     2.781000000    -4.913000000     1.958000000
O     2.741000000    -6.150000000     1.351000000
C     2.346000000    -4.853000000     3.246000000
H     1.970000000    -5.739000000     3.751000000
C     2.426000000    -3.677000000     3.964000000
O     1.844000000    -3.675000000     5.246000000
C     1.921000000    -2.562000000     6.044000000
C     0.829000000    -1.738000000     6.232000000
H    -0.081000000    -1.846000000     5.647000000
C     3.127000000    -2.362000000     6.752000000
H     4.004000000    -2.956000000     6.507000000
C     3.194000000    -1.469000000     7.833000000
H     4.009000000    -1.338000000     8.540000000
C     2.057000000    -0.587000000     7.961000000
H     2.138000000     0.267000000     8.629000000
C     0.890000000    -0.677000000     7.173000000
O    -0.143000000     0.261000000     7.302000000
C    -0.829000000     0.825000000     6.306000000
C    -2.144000000     0.957000000     6.338000000
H    -2.763000000     0.411000000     7.045000000
C    -2.811000000     1.705000000     5.421000000
O    -4.223000000     1.724000000     5.519000000
C    -4.990000000     2.051000000     4.399000000
C    -5.007000000     1.122000000     3.400000000
H    -4.332000000     0.271000000     3.441000000
C    -5.565000000     3.291000000     4.257000000
H    -5.610000000     3.997000000     5.082000000
C    -6.295000000     3.610000000     3.101000000
H    -6.812000000     4.561000000     3.000000000
C    -6.364000000     2.664000000     2.107000000
H    -6.942000000     2.870000000     1.210000000
C    -5.705000000     1.464000000     2.208000000
O    -5.610000000     0.562000000     1.181000000
C    -5.303000000     0.848000000    -0.113000000
C    -5.943000000     0.183000000    -1.178000000
H    -6.805000000    -0.449000000    -0.977000000
C    -5.572000000     0.488000000    -2.536000000
O    -6.183000000    -0.186000000    -3.567000000
C    -5.498000000    -0.802000000    -4.563000000
C    -4.396000000    -1.728000000    -4.311000000
H    -4.008000000    -2.055000000    -3.350000000
C    -5.851000000    -0.459000000    -5.849000000
H    -6.646000000     0.279000000    -5.922000000
C    -5.267000000    -1.065000000    -6.911000000
H    -5.468000000    -0.867000000    -7.961000000
C    -4.239000000    -2.047000000    -6.682000000
H    -3.701000000    -2.449000000    -7.536000000
C    -3.817000000    -2.355000000    -5.411000000
O    -3.096000000    -3.474000000    -5.259000000
C    -1.841000000    -3.474000000    -4.736000000
C    -1.465000000    -4.570000000    -3.968000000
H    -2.276000000    -5.206000000    -3.622000000
C    -0.187000000    -4.606000000    -3.346000000
O     0.246000000    -5.715000000    -2.700000000
C     1.487000000    -6.006000000    -2.086000000
C     2.389000000    -6.897000000    -2.726000000
H     2.225000000    -7.141000000    -3.773000000
C     3.574000000    -7.293000000    -2.100000000
H     4.312000000    -7.899000000    -2.620000000
C     3.641000000    -7.056000000    -0.694000000
H     4.622000000    -7.262000000    -0.273000000
C     2.705000000    -6.275000000    -0.039000000
C     1.594000000    -5.785000000    -0.724000000
H     0.917000000    -5.132000000    -0.180000000
C    -2.016000000    -0.527000000     0.836000000
H    -2.903000000    -0.202000000     1.375000000
C    -1.121000000     0.462000000     0.476000000
H    -1.430000000     1.475000000     0.723000000
C     0.068000000     0.139000000    -0.103000000
C     1.116000000     1.150000000    -0.464000000
H     1.050000000     1.978000000     0.244000000
H     2.075000000     0.635000000    -0.379000000
H     0.915000000     1.393000000    -1.510000000
C     0.391000000    -1.250000000    -0.284000000
H     1.217000000    -1.564000000    -0.918000000
C    -0.571000000    -2.226000000    -0.010000000
H    -0.427000000    -3.279000000    -0.238000000
C    -1.759000000    -1.879000000     0.645000000
C    -2.803000000    -2.880000000     1.056000000
O    -2.464000000    -4.007000000     0.913000000
O    -3.806000000    -2.640000000     1.644000000
O    -1.805000000    -7.667000000     5.194000000
H    -1.934000000    -7.420000000     4.278000000
H    -2.454000000    -7.152000000     5.674000000
O    -0.688000000    -5.263000000     2.559000000
H    -1.232000000    -6.049000000     2.521000000
H    -1.036000000    -4.697000000     1.869000000
O    -4.620000000    -5.679000000     1.711000000
H    -4.017000000    -5.102000000     1.242000000
H    -5.362000000    -5.785000000     1.115000000
O     0.381000000    -0.415000000     2.873000000
H    -0.537000000    -0.567000000     3.098000000
H     0.427000000    -0.577000000     1.930000000
O    -2.651000000    -6.606000000    -0.241000000
H    -2.895000000    -5.755000000     0.121000000
H    -3.124000000    -6.657000000    -1.072000000
O    -3.938000000    -5.928000000     6.220000000
H    -4.533000000    -5.623000000     5.535000000
H    -3.856000000    -5.183000000     6.816000000
O    -4.187000000    -1.599000000     5.848000000
H    -3.532000000    -1.490000000     5.158000000
H    -3.917000000    -2.391000000     6.312000000
O    -2.521000000    -7.428000000     2.465000000
H    -2.406000000    -7.646000000     1.540000000
H    -3.283000000    -6.849000000     2.482000000
O    -5.717000000    -2.129000000     3.633000000
H    -5.111000000    -2.455000000     2.967000000
H    -5.206000000    -2.129000000     4.442000000
O    -5.761000000    -5.278000000     4.170000000
H    -6.611000000    -4.882000000     3.978000000
H    -5.298000000    -5.269000000     3.332000000
O    -6.384000000    -5.661000000    -0.563000000
H    -6.381000000    -4.715000000    -0.710000000
H    -7.294000000    -5.923000000    -0.708000000
O    -8.055000000    -2.099000000     1.019000000
H    -7.396000000    -2.716000000     0.700000000
H    -7.586000000    -1.269000000     1.102000000
O    -5.774000000    -2.922000000    -0.366000000
H    -5.105000000    -3.015000000     0.313000000
H    -5.530000000    -2.123000000    -0.834000000
O    -0.450000000    -8.263000000    -0.388000000
H     0.216000000    -7.868000000    -0.950000000
H    -1.228000000    -7.723000000    -0.522000000
O    -8.063000000    -0.752000000     3.392000000
H    -7.224000000    -1.161000000     3.602000000
H    -8.332000000    -1.165000000     2.571000000
O    -4.563000000    -6.693000000    -2.472000000
H    -5.054000000    -6.198000000    -1.816000000
H    -5.077000000    -6.602000000    -3.275000000
O    -8.092000000    -4.506000000     3.003000000
H    -8.106000000    -3.726000000     2.449000000
H    -8.664000000    -5.129000000     2.553000000
O    -1.270000000    -4.057000000     4.798000000
H    -0.624000000    -4.179000000     5.493000000
H    -0.999000000    -4.664000000     4.109000000
O    -2.124000000    -1.463000000     3.783000000
H    -2.660000000    -1.775000000     3.054000000
H    -1.724000000    -2.255000000     4.142000000
