218
-1472.47743
C    -3.647000000    -3.085000000    -1.716000000
H    -3.744000000    -2.622000000    -2.695000000
C    -3.918000000    -2.326000000    -0.569000000
C    -3.754000000    -2.901000000     0.658000000
H    -3.994000000    -2.343000000     1.559000000
C    -4.209000000    -0.809000000    -0.662000000
O    -4.624000000    -0.389000000    -2.014000000
H    -3.191000000    -0.414000000    -0.535000000
O    -4.986000000    -0.232000000     0.436000000
C    -4.346000000     0.857000000     1.033000000
C    -3.731000000     0.652000000     2.303000000
H    -3.679000000    -0.332000000     2.763000000
C    -3.193000000     1.764000000     2.983000000
O    -2.585000000     1.560000000     4.192000000
C    -3.229000000     2.989000000     2.408000000
C    -2.422000000     4.133000000     3.002000000
H    -2.819000000     4.998000000     2.466000000
C    -0.972000000     3.972000000     2.585000000
C    -0.467000000     4.760000000     1.492000000
H    -1.195000000     5.391000000     0.989000000
H    -2.369000000     4.225000000     4.089000000
C    -3.827000000     3.174000000     1.118000000
H    -3.821000000     4.149000000     0.637000000
C    -4.298000000     2.096000000     0.411000000
C    -4.908000000     2.301000000    -1.028000000
H    -5.149000000     3.359000000    -1.148000000
H    -5.882000000     1.819000000    -1.139000000
C    -3.877000000     1.887000000    -2.097000000
C    -3.015000000     2.838000000    -2.735000000
H    -3.138000000     3.853000000    -2.367000000
C    -3.777000000     0.577000000    -2.513000000
C    -2.889000000     0.250000000    -3.579000000
H    -2.931000000    -0.718000000    -4.071000000
C    -1.979000000     1.153000000    -4.071000000
O    -1.069000000     0.721000000    -4.940000000
C     0.176000000     0.599000000    -4.265000000
C     0.888000000    -0.708000000    -4.622000000
C     2.203000000    -0.847000000    -4.276000000
H     2.804000000    -0.011000000    -3.927000000
C     0.157000000    -1.787000000    -4.946000000
H    -0.913000000    -1.653000000    -5.080000000
O     1.116000000     1.686000000    -4.619000000
H    -0.050000000     0.575000000    -3.189000000
C    -2.055000000     2.486000000    -3.687000000
C    -1.097000000     3.603000000    -4.212000000
H    -1.529000000     4.606000000    -4.242000000
H    -0.887000000     3.505000000    -5.279000000
C     0.161000000     3.594000000    -3.380000000
C     0.223000000     4.490000000    -2.295000000
H    -0.615000000     5.159000000    -2.112000000
C     1.185000000     2.646000000    -3.607000000
C     2.319000000     2.678000000    -2.762000000
H     3.129000000     1.959000000    -2.851000000
C     2.413000000     3.635000000    -1.759000000
O     3.455000000     3.583000000    -0.897000000
C     3.276000000     2.766000000     0.250000000
C     4.518000000     1.953000000     0.563000000
C     5.377000000     1.485000000    -0.441000000
H     5.251000000     1.850000000    -1.457000000
C     4.610000000     1.388000000     1.798000000
H     3.868000000     1.622000000     2.558000000
O     2.995000000     3.547000000     1.424000000
H     2.427000000     2.074000000     0.146000000
C     1.294000000     4.485000000    -1.448000000
C     1.275000000     5.383000000    -0.197000000
H     0.521000000     6.140000000    -0.423000000
H     2.151000000     5.978000000     0.072000000
C     0.859000000     4.641000000     1.096000000
C     1.683000000     3.792000000     1.753000000
C     1.224000000     3.040000000     2.826000000
H     1.949000000     2.432000000     3.361000000
C    -0.093000000     3.077000000     3.204000000
O    -0.416000000     2.308000000     4.284000000
C    -1.189000000     1.119000000     4.068000000
H    -1.071000000     0.677000000     3.068000000
C    -0.867000000    -0.040000000     4.924000000
C    -1.832000000    -1.005000000     5.310000000
H    -2.888000000    -0.771000000     5.205000000
C     0.470000000    -0.255000000     5.282000000
H     1.245000000     0.417000000     4.922000000
C     0.834000000    -1.326000000     6.027000000
O     2.150000000    -1.428000000     6.495000000
C    -0.107000000    -2.221000000     6.503000000
H     0.108000000    -3.065000000     7.154000000
C    -1.437000000    -2.066000000     6.105000000
O    -2.383000000    -3.030000000     6.402000000
C    -3.224000000    -3.558000000     5.480000000
C    -2.703000000    -3.924000000     4.245000000
H    -1.635000000    -3.787000000     4.095000000
C    -4.589000000    -3.762000000     5.707000000
H    -5.023000000    -3.458000000     6.656000000
C    -5.381000000    -4.242000000     4.639000000
H    -6.414000000    -4.452000000     4.905000000
C    -4.838000000    -4.582000000     3.414000000
H    -5.490000000    -4.946000000     2.624000000
C    -3.447000000    -4.420000000     3.225000000
O    -2.912000000    -4.755000000     2.020000000
C    -3.322000000    -4.194000000     0.779000000
C    -3.207000000    -5.006000000    -0.365000000
H    -2.862000000    -6.036000000    -0.418000000
C    -3.360000000    -4.458000000    -1.584000000
O    -3.403000000    -5.256000000    -2.673000000
C    -2.889000000    -4.997000000    -3.889000000
C    -1.537000000    -4.550000000    -4.049000000
H    -0.892000000    -4.361000000    -3.195000000
C    -3.649000000    -5.221000000    -5.016000000
H    -4.684000000    -5.533000000    -4.907000000
C    -3.187000000    -5.007000000    -6.360000000
H    -3.806000000    -5.043000000    -7.253000000
C    -1.863000000    -4.523000000    -6.462000000
H    -1.406000000    -4.429000000    -7.444000000
C    -1.058000000    -4.353000000    -5.343000000
O     0.263000000    -4.128000000    -5.629000000
C     0.867000000    -2.959000000    -5.227000000
C     2.200000000    -3.145000000    -4.959000000
H     2.792000000    -4.019000000    -5.220000000
C     2.871000000    -2.036000000    -4.465000000
O     4.197000000    -2.147000000    -4.180000000
C     5.136000000    -1.143000000    -3.962000000
C     5.662000000    -1.071000000    -2.691000000
H     5.185000000    -1.552000000    -1.840000000
C     5.810000000    -0.513000000    -5.016000000
H     5.523000000    -0.709000000    -6.046000000
C     6.844000000     0.342000000    -4.770000000
H     7.373000000     0.749000000    -5.628000000
C     7.284000000     0.501000000    -3.472000000
H     8.104000000     1.204000000    -3.356000000
C     6.724000000    -0.182000000    -2.454000000
O     7.157000000     0.027000000    -1.138000000
C     6.312000000     0.541000000    -0.201000000
C     6.546000000     0.176000000     1.155000000
H     7.309000000    -0.569000000     1.367000000
C     5.618000000     0.461000000     2.127000000
O     5.777000000     0.000000000     3.443000000
C     4.832000000     0.194000000     4.508000000
C     4.973000000     1.369000000     5.228000000
H     5.709000000     2.109000000     4.924000000
C     4.043000000     1.677000000     6.248000000
H     4.107000000     2.650000000     6.730000000
C     3.135000000     0.746000000     6.665000000
H     2.358000000     1.087000000     7.344000000
C     3.096000000    -0.501000000     6.076000000
C     3.994000000    -0.778000000     5.064000000
H     3.735000000    -1.667000000     4.495000000
C     1.978000000    -2.721000000    -1.175000000
H     2.113000000    -3.410000000    -2.005000000
C     0.955000000    -1.706000000    -1.239000000
H     0.253000000    -1.597000000    -2.062000000
C     0.897000000    -0.853000000    -0.181000000
C    -0.147000000     0.155000000    -0.135000000
H    -1.051000000    -0.448000000    -0.244000000
H    -0.136000000     0.651000000     0.838000000
H    -0.150000000     0.894000000    -0.938000000
C     1.743000000    -0.967000000     0.925000000
H     1.539000000    -0.358000000     1.802000000
C     2.703000000    -1.982000000     0.961000000
H     3.337000000    -2.115000000     1.835000000
C     2.887000000    -2.793000000    -0.129000000
C     3.962000000    -3.933000000    -0.077000000
O     4.910000000    -3.912000000     0.728000000
O     3.909000000    -4.862000000    -0.880000000
O     0.901000000    -5.264000000     3.454000000
H     0.995000000    -6.204000000     3.606000000
H     1.135000000    -4.861000000     4.290000000
O     8.027000000    -6.303000000     1.676000000
H     7.795000000    -5.488000000     1.230000000
H     7.273000000    -6.875000000     1.537000000
O     7.408000000    -4.091000000    -0.259000000
H     6.542000000    -3.977000000     0.132000000
H     7.235000000    -4.475000000    -1.118000000
O     4.048000000    -6.381000000     2.053000000
H     3.130000000    -6.564000000     1.852000000
H     4.272000000    -5.636000000     1.495000000
O     9.298000000    -2.157000000    -0.260000000
H     8.777000000    -2.924000000    -0.026000000
H     8.886000000    -1.821000000    -1.056000000
O     2.396000000    -6.410000000    -2.109000000
H     2.885000000    -7.189000000    -2.374000000
H     3.066000000    -5.802000000    -1.796000000
O     2.022000000    -4.518000000     5.802000000
H     2.306000000    -5.267000000     6.327000000
H     2.471000000    -3.768000000     6.192000000
O     5.920000000    -8.341000000     1.660000000
H     5.856000000    -9.269000000     1.886000000
H     5.118000000    -7.954000000     2.010000000
O     5.921000000    -3.633000000     5.526000000
H     5.594000000    -4.503000000     5.756000000
H     5.883000000    -3.608000000     4.570000000
O     8.227000000    -8.935000000    -1.328000000
H     7.780000000    -8.113000000    -1.126000000
H     8.480000000    -8.851000000    -2.247000000
O    -0.732000000    -8.650000000     1.002000000
H    -0.661000000    -7.912000000     0.397000000
H    -0.403000000    -9.399000000     0.506000000
O    -0.024000000    -6.544000000    -0.753000000
H     0.056000000    -5.779000000    -0.184000000
H     0.863000000    -6.693000000    -1.081000000
O    -0.061000000    -4.315000000     0.911000000
H     0.201000000    -4.626000000     1.777000000
H     0.554000000    -3.609000000     0.713000000
O     4.998000000    -6.635000000     4.977000000
H     4.652000000    -6.342000000     4.134000000
H     4.940000000    -7.590000000     4.940000000
O     6.191000000    -6.753000000    -0.882000000
H     5.399000000    -6.215000000    -0.877000000
H     5.929000000    -7.568000000    -0.455000000
O     7.205000000    -3.788000000    -5.278000000
H     6.684000000    -4.208000000    -5.962000000
H     6.694000000    -3.913000000    -4.478000000
O     2.422000000    -7.795000000    -5.790000000
H     2.537000000    -7.048000000    -5.202000000
H     1.485000000    -7.807000000    -5.981000000
O     6.042000000    -3.151000000     2.917000000
H     5.653000000    -3.614000000     2.175000000
H     5.892000000    -2.225000000     2.726000000
O     6.042000000    -4.910000000    -3.006000000
H     5.370000000    -4.560000000    -2.421000000
H     6.066000000    -5.846000000    -2.810000000
