218
-1472.90281
C    -2.509000000     2.906000000     4.038000000
H    -2.843000000     3.573000000     3.247000000
C    -1.114000000     2.535000000     4.083000000
C    -0.650000000     1.670000000     5.082000000
H     0.410000000     1.440000000     5.144000000
C    -0.180000000     3.303000000     3.161000000
O    -0.804000000     4.355000000     2.512000000
H     0.008000000     2.515000000     2.416000000
O     1.110000000     3.620000000     3.769000000
C     2.178000000     3.162000000     2.956000000
C     2.704000000     1.875000000     3.203000000
H     2.622000000     1.403000000     4.179000000
C     3.633000000     1.377000000     2.313000000
O     4.052000000     0.028000000     2.522000000
C     4.069000000     2.110000000     1.200000000
C     5.191000000     1.515000000     0.337000000
H     5.757000000     2.334000000    -0.112000000
C     4.643000000     0.623000000    -0.777000000
C     4.514000000     1.171000000    -2.076000000
H     4.740000000     2.230000000    -2.179000000
H     5.765000000     0.774000000     0.897000000
C     3.636000000     3.422000000     0.999000000
H     4.013000000     3.998000000     0.158000000
C     2.606000000     3.843000000     1.835000000
C     1.960000000     5.143000000     1.320000000
H     2.614000000     5.793000000     0.735000000
H     1.721000000     5.675000000     2.243000000
C     0.634000000     4.808000000     0.575000000
C     0.728000000     4.843000000    -0.809000000
H     1.681000000     5.031000000    -1.299000000
C    -0.606000000     4.390000000     1.145000000
C    -1.645000000     4.083000000     0.314000000
H    -2.647000000     3.996000000     0.727000000
C    -1.497000000     4.085000000    -1.061000000
O    -2.575000000     3.625000000    -1.781000000
C    -2.516000000     2.320000000    -2.342000000
C    -3.758000000     1.594000000    -2.061000000
C    -4.180000000     0.650000000    -2.960000000
H    -3.686000000     0.524000000    -3.920000000
C    -4.435000000     1.535000000    -0.827000000
H    -4.043000000     2.189000000    -0.052000000
O    -1.985000000     2.276000000    -3.725000000
H    -1.758000000     1.776000000    -1.759000000
C    -0.349000000     4.399000000    -1.623000000
C    -0.101000000     4.333000000    -3.130000000
H     0.725000000     5.014000000    -3.344000000
H    -0.995000000     4.668000000    -3.661000000
C     0.293000000     2.951000000    -3.482000000
C     1.627000000     2.638000000    -3.682000000
H     2.386000000     3.349000000    -3.367000000
C    -0.675000000     2.052000000    -3.786000000
C    -0.352000000     0.783000000    -4.248000000
H    -1.139000000     0.132000000    -4.621000000
C     0.950000000     0.460000000    -4.494000000
O     1.150000000    -0.781000000    -4.936000000
C     1.653000000    -1.750000000    -3.977000000
C     1.042000000    -3.064000000    -4.212000000
C    -0.220000000    -3.084000000    -4.807000000
H    -0.602000000    -2.206000000    -5.323000000
C     1.499000000    -4.197000000    -3.538000000
H     2.460000000    -4.129000000    -3.034000000
O     3.128000000    -1.731000000    -3.805000000
H     1.338000000    -1.408000000    -2.980000000
C     1.947000000     1.402000000    -4.198000000
C     3.465000000     1.111000000    -4.333000000
H     4.009000000     2.057000000    -4.304000000
H     3.609000000     0.562000000    -5.265000000
C     3.932000000     0.417000000    -3.070000000
C     3.795000000    -0.955000000    -2.932000000
C     4.049000000    -1.585000000    -1.695000000
H     3.870000000    -2.641000000    -1.508000000
C     4.454000000    -0.757000000    -0.606000000
O     4.505000000    -1.376000000     0.636000000
C     3.496000000    -0.926000000     1.582000000
H     2.730000000    -0.395000000     0.998000000
C     2.869000000    -2.127000000     2.360000000
C     2.643000000    -2.104000000     3.734000000
H     2.866000000    -1.182000000     4.265000000
C     2.591000000    -3.330000000     1.671000000
H     2.636000000    -3.296000000     0.586000000
C     2.061000000    -4.438000000     2.380000000
O     1.563000000    -5.567000000     1.827000000
C     1.998000000    -4.410000000     3.804000000
H     1.707000000    -5.316000000     4.329000000
C     2.139000000    -3.213000000     4.470000000
O     1.972000000    -3.153000000     5.855000000
C     1.652000000    -2.009000000     6.580000000
C     0.467000000    -1.352000000     6.343000000
H    -0.197000000    -1.768000000     5.589000000
C     2.675000000    -1.405000000     7.380000000
H     3.651000000    -1.870000000     7.497000000
C     2.403000000    -0.240000000     8.067000000
H     3.114000000     0.118000000     8.807000000
C     1.096000000     0.336000000     7.984000000
H     0.912000000     1.196000000     8.622000000
C     0.185000000    -0.138000000     7.031000000
O    -1.056000000     0.341000000     7.011000000
C    -1.526000000     1.141000000     6.001000000
C    -2.859000000     1.373000000     5.898000000
H    -3.432000000     0.932000000     6.709000000
C    -3.407000000     2.147000000     4.895000000
O    -4.794000000     2.300000000     4.809000000
C    -5.347000000     2.645000000     3.603000000
C    -5.543000000     1.559000000     2.707000000
H    -5.253000000     0.550000000     2.987000000
C    -5.647000000     3.957000000     3.298000000
H    -5.514000000     4.724000000     4.057000000
C    -6.063000000     4.198000000     1.934000000
H    -6.148000000     5.231000000     1.607000000
C    -6.326000000     3.159000000     1.070000000
H    -6.672000000     3.449000000     0.081000000
C    -6.048000000     1.842000000     1.410000000
O    -6.234000000     0.786000000     0.552000000
C    -5.500000000     0.671000000    -0.608000000
C    -5.875000000    -0.261000000    -1.519000000
H    -6.725000000    -0.907000000    -1.314000000
C    -5.222000000    -0.309000000    -2.714000000
O    -5.472000000    -1.246000000    -3.641000000
C    -4.666000000    -1.669000000    -4.673000000
C    -3.729000000    -2.660000000    -4.501000000
H    -3.567000000    -3.195000000    -3.568000000
C    -4.993000000    -1.175000000    -5.962000000
H    -5.530000000    -0.232000000    -6.021000000
C    -4.244000000    -1.620000000    -7.032000000
H    -4.363000000    -1.143000000    -8.001000000
C    -3.372000000    -2.710000000    -6.944000000
H    -2.829000000    -3.044000000    -7.824000000
C    -3.090000000    -3.197000000    -5.647000000
O    -2.190000000    -4.293000000    -5.557000000
C    -1.022000000    -4.242000000    -4.843000000
C    -0.561000000    -5.277000000    -4.046000000
H    -1.140000000    -6.197000000    -4.042000000
C     0.707000000    -5.313000000    -3.427000000
O     1.015000000    -6.513000000    -2.860000000
C     1.765000000    -6.525000000    -1.683000000
C     3.054000000    -7.062000000    -1.792000000
H     3.409000000    -7.506000000    -2.718000000
C     3.854000000    -6.991000000    -0.652000000
H     4.850000000    -7.427000000    -0.662000000
C     3.418000000    -6.387000000     0.561000000
H     4.028000000    -6.408000000     1.460000000
C     2.088000000    -5.981000000     0.631000000
C     1.251000000    -6.025000000    -0.474000000
H     0.230000000    -5.670000000    -0.367000000
C    -1.735000000    -2.153000000    -0.625000000
H    -2.348000000    -2.641000000    -1.379000000
C    -1.132000000    -0.894000000    -0.866000000
H    -1.190000000    -0.310000000    -1.781000000
C    -0.312000000    -0.403000000     0.160000000
C     0.428000000     0.951000000     0.017000000
H     1.305000000     0.780000000    -0.611000000
H    -0.180000000     1.700000000    -0.495000000
H     0.832000000     1.394000000     0.930000000
C    -0.130000000    -1.072000000     1.359000000
H     0.576000000    -0.718000000     2.106000000
C    -0.759000000    -2.272000000     1.596000000
H    -0.692000000    -2.870000000     2.501000000
C    -1.556000000    -2.856000000     0.600000000
C    -2.327000000    -4.164000000     0.759000000
O    -2.695000000    -4.603000000     1.854000000
O    -2.645000000    -4.769000000    -0.252000000
O    -3.405000000    -2.542000000     3.427000000
H    -3.513000000    -1.982000000     2.658000000
H    -3.138000000    -3.389000000     3.070000000
O    -0.951000000    -8.804000000    -3.617000000
H    -0.044000000    -8.560000000    -3.801000000
H    -1.259000000    -8.137000000    -3.004000000
O    -3.496000000    -2.130000000     6.060000000
H    -3.286000000    -2.436000000     5.177000000
H    -3.475000000    -2.921000000     6.598000000
O    -2.283000000    -6.842000000    -1.845000000
H    -2.418000000    -6.105000000    -1.248000000
H    -2.706000000    -7.582000000    -1.411000000
O    -3.771000000    -7.238000000     3.754000000
H    -2.838000000    -7.068000000     3.628000000
H    -4.185000000    -6.899000000     2.960000000
O    -0.979000000    -6.024000000     6.080000000
H    -0.116000000    -6.393000000     6.269000000
H    -1.081000000    -6.127000000     5.133000000
O    -5.355000000    -4.982000000     5.848000000
H    -5.636000000    -5.260000000     4.976000000
H    -4.598000000    -5.535000000     6.042000000
O    -1.304000000    -6.127000000     3.333000000
H    -1.791000000    -5.464000000     2.843000000
H    -0.395000000    -6.006000000     3.060000000
O    -5.907000000    -6.466000000    -1.194000000
H    -6.826000000    -6.728000000    -1.247000000
H    -5.523000000    -6.774000000    -2.015000000
O    -3.083000000    -9.124000000    -0.271000000
H    -2.549000000    -9.913000000    -0.366000000
H    -3.328000000    -9.111000000     0.654000000
O    -6.267000000    -2.338000000     4.561000000
H    -5.340000000    -2.273000000     4.331000000
H    -6.398000000    -3.265000000     4.764000000
O    -4.979000000    -3.891000000    -1.525000000
H    -4.122000000    -4.130000000    -1.171000000
H    -5.465000000    -4.715000000    -1.550000000
O    -6.831000000    -5.213000000     2.963000000
H    -6.101000000    -5.697000000     2.576000000
H    -6.911000000    -4.428000000     2.421000000
O     1.013000000    -8.960000000     1.419000000
H     1.064000000    -8.031000000     1.195000000
H     0.082000000    -9.172000000     1.351000000
O    -6.376000000    -3.046000000     1.112000000
H    -5.461000000    -2.768000000     1.149000000
H    -6.487000000    -3.386000000     0.224000000
O    -4.875000000    -6.708000000    -3.513000000
H    -4.742000000    -7.360000000    -4.201000000
H    -4.004000000    -6.340000000    -3.360000000
O    -4.822000000    -6.206000000     1.380000000
H    -4.005000000    -5.710000000     1.344000000
H    -5.109000000    -6.263000000     0.469000000
O    -6.562000000    -4.002000000    -3.950000000
H    -6.410000000    -3.560000000    -3.115000000
H    -5.865000000    -4.656000000    -4.006000000
O    -3.867000000    -1.033000000     1.174000000
H    -4.401000000    -0.418000000     0.671000000
H    -2.965000000    -0.799000000     0.959000000
