218
-1473.82727
C    -3.307000000    -3.804000000    -1.848000000
H    -3.047000000    -3.375000000    -2.813000000
C    -3.781000000    -2.947000000    -0.806000000
C    -3.993000000    -3.510000000     0.435000000
H    -4.204000000    -2.865000000     1.283000000
C    -3.729000000    -1.404000000    -0.989000000
O    -3.995000000    -0.965000000    -2.339000000
H    -2.757000000    -0.938000000    -0.769000000
O    -4.783000000    -0.808000000    -0.186000000
C    -4.520000000     0.408000000     0.446000000
C    -4.141000000     0.355000000     1.751000000
H    -4.171000000    -0.611000000     2.247000000
C    -3.687000000     1.411000000     2.485000000
O    -3.122000000     1.202000000     3.704000000
C    -3.759000000     2.720000000     1.865000000
C    -3.202000000     3.853000000     2.606000000
H    -3.596000000     4.818000000     2.279000000
C    -1.682000000     3.843000000     2.471000000
C    -1.179000000     4.624000000     1.411000000
H    -1.860000000     5.275000000     0.869000000
H    -3.458000000     3.671000000     3.651000000
C    -4.168000000     2.760000000     0.552000000
H    -4.153000000     3.741000000     0.083000000
C    -4.508000000     1.630000000    -0.179000000
C    -4.963000000     1.751000000    -1.631000000
H    -5.468000000     2.705000000    -1.795000000
H    -5.814000000     1.087000000    -1.796000000
C    -3.794000000     1.402000000    -2.472000000
C    -3.067000000     2.472000000    -3.050000000
H    -3.381000000     3.504000000    -2.915000000
C    -3.417000000     0.110000000    -2.863000000
C    -2.432000000    -0.098000000    -3.771000000
H    -2.138000000    -1.116000000    -4.012000000
C    -1.656000000     0.926000000    -4.293000000
O    -0.533000000     0.636000000    -4.971000000
C     0.583000000     0.745000000    -4.124000000
C     1.393000000    -0.569000000    -4.220000000
C     2.719000000    -0.600000000    -3.750000000
H     3.171000000     0.230000000    -3.212000000
C     0.842000000    -1.695000000    -4.807000000
H    -0.172000000    -1.686000000    -5.197000000
O     1.348000000     1.963000000    -4.399000000
H     0.344000000     0.728000000    -3.050000000
C    -1.974000000     2.228000000    -3.819000000
C    -1.132000000     3.406000000    -4.253000000
H    -1.763000000     4.289000000    -4.377000000
H    -0.746000000     3.284000000    -5.267000000
C     0.026000000     3.652000000    -3.251000000
C    -0.129000000     4.495000000    -2.167000000
H    -1.050000000     5.044000000    -1.989000000
C     1.248000000     2.965000000    -3.448000000
C     2.307000000     3.163000000    -2.583000000
H     3.307000000     2.745000000    -2.667000000
C     2.059000000     3.918000000    -1.419000000
O     3.138000000     3.863000000    -0.584000000
C     2.947000000     3.027000000     0.552000000
C     4.286000000     2.352000000     0.819000000
C     5.333000000     2.315000000    -0.154000000
H     5.276000000     2.850000000    -1.099000000
C     4.486000000     1.772000000     2.073000000
H     3.657000000     1.682000000     2.769000000
O     2.431000000     3.815000000     1.686000000
H     2.157000000     2.329000000     0.238000000
C     0.880000000     4.620000000    -1.245000000
C     0.722000000     5.489000000     0.028000000
H     0.184000000     6.429000000    -0.112000000
H     1.735000000     5.815000000     0.273000000
C     0.204000000     4.652000000     1.144000000
C     1.085000000     3.854000000     1.963000000
C     0.576000000     3.200000000     3.025000000
H     1.218000000     2.539000000     3.601000000
C    -0.795000000     3.204000000     3.337000000
O    -1.168000000     2.310000000     4.274000000
C    -1.655000000     1.080000000     3.762000000
H    -1.243000000     0.967000000     2.749000000
C    -1.157000000    -0.154000000     4.630000000
C    -2.022000000    -1.191000000     4.976000000
H    -3.059000000    -1.236000000     4.654000000
C     0.211000000    -0.194000000     4.968000000
H     0.883000000     0.592000000     4.634000000
C     0.672000000    -1.301000000     5.707000000
O     1.994000000    -1.391000000     5.983000000
C    -0.172000000    -2.313000000     6.119000000
H     0.179000000    -3.223000000     6.597000000
C    -1.539000000    -2.294000000     5.712000000
O    -2.403000000    -3.355000000     6.086000000
C    -3.403000000    -3.713000000     5.203000000
C    -3.121000000    -4.497000000     4.042000000
H    -2.104000000    -4.739000000     3.746000000
C    -4.715000000    -3.467000000     5.616000000
H    -4.948000000    -2.854000000     6.483000000
C    -5.749000000    -3.680000000     4.710000000
H    -6.784000000    -3.409000000     4.901000000
C    -5.435000000    -4.166000000     3.426000000
H    -6.152000000    -4.333000000     2.627000000
C    -4.149000000    -4.633000000     3.129000000
O    -3.897000000    -5.332000000     1.960000000
C    -3.906000000    -4.866000000     0.604000000
C    -3.412000000    -5.736000000    -0.393000000
H    -3.016000000    -6.726000000    -0.181000000
C    -3.018000000    -5.183000000    -1.609000000
O    -2.410000000    -5.878000000    -2.577000000
C    -1.953000000    -5.467000000    -3.801000000
C    -0.685000000    -4.921000000    -3.941000000
H     0.072000000    -5.002000000    -3.165000000
C    -2.836000000    -5.410000000    -4.854000000
H    -3.878000000    -5.683000000    -4.711000000
C    -2.419000000    -4.768000000    -6.034000000
H    -3.107000000    -4.651000000    -6.867000000
C    -1.147000000    -4.270000000    -6.153000000
H    -0.807000000    -3.858000000    -7.100000000
C    -0.267000000    -4.433000000    -5.149000000
O     1.044000000    -4.077000000    -5.372000000
C     1.557000000    -2.903000000    -4.833000000
C     2.856000000    -2.943000000    -4.360000000
H     3.477000000    -3.824000000    -4.500000000
C     3.444000000    -1.797000000    -3.888000000
O     4.703000000    -1.889000000    -3.461000000
C     5.609000000    -0.791000000    -3.294000000
C     6.081000000    -0.315000000    -2.042000000
H     5.678000000    -0.809000000    -1.162000000
C     6.089000000    -0.185000000    -4.467000000
H     5.867000000    -0.604000000    -5.445000000
C     6.959000000     0.948000000    -4.437000000
H     7.414000000     1.328000000    -5.348000000
C     7.271000000     1.536000000    -3.189000000
H     7.970000000     2.360000000    -3.073000000
C     6.872000000     0.850000000    -2.014000000
O     7.396000000     1.318000000    -0.820000000
C     6.478000000     1.568000000     0.138000000
C     6.635000000     0.952000000     1.356000000
H     7.473000000     0.277000000     1.513000000
C     5.656000000     0.992000000     2.277000000
O     5.781000000     0.278000000     3.415000000
C     4.849000000     0.358000000     4.468000000
C     5.097000000     1.387000000     5.391000000
H     5.894000000     2.112000000     5.245000000
C     4.234000000     1.458000000     6.502000000
H     4.574000000     2.182000000     7.238000000
C     3.215000000     0.538000000     6.676000000
H     2.624000000     0.724000000     7.569000000
C     2.942000000    -0.415000000     5.707000000
C     3.785000000    -0.540000000     4.612000000
H     3.728000000    -1.323000000     3.860000000
C     1.391000000    -1.752000000    -1.082000000
H     1.279000000    -2.487000000    -1.875000000
C     0.337000000    -0.849000000    -1.004000000
H    -0.426000000    -0.951000000    -1.772000000
C     0.276000000     0.142000000     0.004000000
C    -0.719000000     1.291000000    -0.106000000
H    -0.998000000     1.334000000    -1.161000000
H    -1.575000000     1.161000000     0.559000000
H    -0.285000000     2.270000000     0.108000000
C     1.244000000     0.199000000     1.008000000
H     1.180000000     0.990000000     1.751000000
C     2.329000000    -0.731000000     0.965000000
H     3.084000000    -0.595000000     1.735000000
C     2.385000000    -1.727000000    -0.057000000
C     3.398000000    -2.804000000     0.000000000
O     4.495000000    -2.530000000     0.439000000
O     3.094000000    -3.925000000    -0.329000000
O     0.829000000    -4.633000000     3.858000000
H     0.809000000    -4.046000000     3.102000000
H     1.757000000    -4.703000000     4.082000000
O     7.318000000    -6.576000000    -0.545000000
H     7.195000000    -5.686000000    -0.875000000
H     6.599000000    -6.703000000     0.074000000
O     6.617000000    -3.502000000    -0.940000000
H     6.048000000    -3.047000000    -0.319000000
H     6.023000000    -3.817000000    -1.621000000
O     3.393000000    -5.157000000     2.028000000
H     3.453000000    -4.675000000     1.203000000
H     3.267000000    -4.479000000     2.692000000
O     8.943000000    -2.083000000    -0.724000000
H     8.200000000    -2.633000000    -0.970000000
H     9.268000000    -1.734000000    -1.554000000
O     2.091000000    -5.985000000    -1.645000000
H     1.974000000    -6.680000000    -0.997000000
H     2.281000000    -5.203000000    -1.127000000
O     3.049000000    -4.641000000     5.019000000
H     2.540000000    -5.092000000     5.692000000
H     3.919000000    -4.538000000     5.404000000
O     5.301000000    -7.101000000     1.046000000
H     4.598000000    -7.750000000     1.079000000
H     4.865000000    -6.268000000     1.223000000
O     7.017000000    -4.979000000     4.107000000
H     6.333000000    -4.796000000     4.751000000
H     7.012000000    -4.217000000     3.528000000
O    -0.292000000    -6.535000000     1.722000000
H    -0.167000000    -5.587000000     1.773000000
H     0.403000000    -6.898000000     2.270000000
O     9.158000000    -4.564000000     1.775000000
H     9.454000000    -5.302000000     2.308000000
H     8.310000000    -4.843000000     1.430000000
O     1.163000000    -8.247000000    -3.246000000
H     0.282000000    -8.578000000    -3.070000000
H     1.162000000    -7.360000000    -2.888000000
O     0.335000000    -3.747000000     1.211000000
H     0.026000000    -2.858000000     1.039000000
H     1.023000000    -3.892000000     0.562000000
O     2.193000000    -7.352000000     3.405000000
H     2.713000000    -7.786000000     4.081000000
H     2.770000000    -6.670000000     3.061000000
O     2.489000000    -8.100000000     0.340000000
H     3.138000000    -8.765000000     0.106000000
H     1.666000000    -8.583000000     0.409000000
O     5.404000000    -7.408000000     4.323000000
H     5.761000000    -6.620000000     3.912000000
H     5.781000000    -8.131000000     3.822000000
O     6.358000000    -4.531000000    -3.560000000
H     6.179000000    -4.458000000    -4.497000000
H     5.571000000    -4.937000000    -3.197000000
O     6.225000000    -3.039000000     2.375000000
H     5.420000000    -2.927000000     1.871000000
H     6.896000000    -3.221000000     1.717000000
O     4.316000000    -6.317000000    -3.098000000
H     3.607000000    -6.120000000    -2.485000000
H     3.908000000    -6.255000000    -3.962000000
