218
-1453.14528
C    -2.818000000     3.296000000     3.439000000
H    -2.959000000     4.152000000     2.785000000
C    -1.612000000     2.783000000     3.598000000
C    -1.399000000     1.849000000     4.592000000
H    -0.419000000     1.379000000     4.594000000
C    -0.401000000     3.286000000     2.786000000
O    -0.555000000     4.517000000     1.988000000
H    -0.124000000     2.466000000     2.107000000
O     0.836000000     3.523000000     3.583000000
C     1.995000000     2.960000000     3.068000000
C     2.303000000     1.620000000     3.405000000
H     1.643000000     1.097000000     4.092000000
C     3.330000000     0.912000000     2.746000000
O     3.671000000    -0.304000000     3.140000000
C     4.066000000     1.513000000     1.730000000
C     5.299000000     0.915000000     1.114000000
H     5.895000000     1.695000000     0.635000000
C     4.873000000    -0.056000000    -0.016000000
C     4.925000000     0.400000000    -1.297000000
H     5.248000000     1.416000000    -1.509000000
H     5.864000000     0.323000000     1.837000000
C     3.691000000     2.807000000     1.354000000
H     4.268000000     3.282000000     0.565000000
C     2.735000000     3.552000000     1.993000000
C     2.283000000     4.881000000     1.422000000
H     3.057000000     5.531000000     1.009000000
H     1.834000000     5.431000000     2.252000000
C     1.206000000     4.756000000     0.361000000
C     1.447000000     4.854000000    -1.008000000
H     2.467000000     4.965000000    -1.366000000
C    -0.145000000     4.635000000     0.727000000
C    -1.152000000     4.422000000    -0.273000000
H    -2.201000000     4.393000000     0.011000000
C    -0.764000000     4.254000000    -1.563000000
O    -1.762000000     3.792000000    -2.395000000
C    -1.710000000     2.387000000    -2.803000000
C    -3.141000000     1.761000000    -2.784000000
C    -3.416000000     0.614000000    -3.510000000
H    -2.622000000     0.213000000    -4.135000000
C    -4.053000000     2.218000000    -1.838000000
H    -3.734000000     3.076000000    -1.252000000
O    -1.056000000     2.298000000    -4.038000000
H    -1.114000000     1.819000000    -2.074000000
C     0.539000000     4.424000000    -1.964000000
C     1.015000000     4.181000000    -3.434000000
H     1.899000000     4.773000000    -3.682000000
H     0.192000000     4.532000000    -4.059000000
C     1.309000000     2.721000000    -3.805000000
C     2.623000000     2.214000000    -3.607000000
H     3.440000000     2.807000000    -3.205000000
C     0.223000000     1.882000000    -4.171000000
C     0.475000000     0.611000000    -4.581000000
H    -0.365000000     0.061000000    -4.997000000
C     1.848000000     0.159000000    -4.511000000
O     2.099000000    -1.209000000    -4.741000000
C     2.086000000    -2.038000000    -3.560000000
C     1.163000000    -3.305000000    -3.695000000
C     0.250000000    -3.350000000    -4.788000000
H     0.137000000    -2.546000000    -5.511000000
C     1.173000000    -4.312000000    -2.817000000
H     1.878000000    -4.204000000    -1.997000000
O     3.352000000    -2.400000000    -3.085000000
H     1.615000000    -1.441000000    -2.765000000
C     2.874000000     0.908000000    -3.890000000
C     4.279000000     0.300000000    -3.724000000
H     5.006000000     1.098000000    -3.890000000
H     4.471000000    -0.466000000    -4.479000000
C     4.319000000    -0.304000000    -2.336000000
C     3.880000000    -1.632000000    -2.061000000
C     3.977000000    -2.167000000    -0.761000000
H     3.374000000    -3.060000000    -0.615000000
C     4.463000000    -1.362000000     0.244000000
O     4.294000000    -1.894000000     1.528000000
C     3.221000000    -1.362000000     2.299000000
H     2.415000000    -0.932000000     1.686000000
C     2.534000000    -2.440000000     3.108000000
C     1.976000000    -2.110000000     4.343000000
H     2.213000000    -1.196000000     4.882000000
C     2.242000000    -3.710000000     2.547000000
H     2.605000000    -4.011000000     1.568000000
C     1.515000000    -4.626000000     3.307000000
O     1.211000000    -5.917000000     2.799000000
C     1.124000000    -4.353000000     4.608000000
H     0.483000000    -4.926000000     5.272000000
C     1.381000000    -3.047000000     5.081000000
O     1.049000000    -2.885000000     6.447000000
C     0.505000000    -1.692000000     6.940000000
C    -0.671000000    -1.225000000     6.448000000
H    -1.185000000    -1.767000000     5.658000000
C     1.285000000    -1.037000000     7.894000000
H     2.199000000    -1.464000000     8.298000000
C     0.880000000     0.211000000     8.306000000
H     1.542000000     0.768000000     8.964000000
C    -0.313000000     0.753000000     7.815000000
H    -0.634000000     1.741000000     8.136000000
C    -1.073000000     0.022000000     6.895000000
O    -2.288000000     0.570000000     6.447000000
C    -2.399000000     1.428000000     5.399000000
C    -3.701000000     1.795000000     5.145000000
H    -4.527000000     1.353000000     5.695000000
C    -3.954000000     2.766000000     4.154000000
O    -5.288000000     3.185000000     3.771000000
C    -5.564000000     3.597000000     2.483000000
C    -5.746000000     2.614000000     1.516000000
H    -5.735000000     1.584000000     1.863000000
C    -5.492000000     4.930000000     2.109000000
H    -5.365000000     5.634000000     2.927000000
C    -5.771000000     5.282000000     0.758000000
H    -5.776000000     6.310000000     0.407000000
C    -6.008000000     4.267000000    -0.181000000
H    -5.996000000     4.601000000    -1.216000000
C    -5.955000000     2.965000000     0.194000000
O    -6.169000000     2.010000000    -0.718000000
C    -5.271000000     1.658000000    -1.726000000
C    -5.551000000     0.547000000    -2.476000000
H    -6.545000000     0.141000000    -2.305000000
C    -4.640000000    -0.078000000    -3.319000000
O    -4.894000000    -1.286000000    -3.909000000
C    -4.195000000    -1.875000000    -4.961000000
C    -3.174000000    -2.857000000    -4.713000000
H    -2.902000000    -3.194000000    -3.717000000
C    -4.517000000    -1.528000000    -6.257000000
H    -5.249000000    -0.746000000    -6.440000000
C    -3.856000000    -2.080000000    -7.344000000
H    -4.139000000    -1.844000000    -8.367000000
C    -2.891000000    -3.091000000    -7.099000000
H    -2.458000000    -3.646000000    -7.928000000
C    -2.515000000    -3.401000000    -5.802000000
O    -1.550000000    -4.403000000    -5.808000000
C    -0.540000000    -4.430000000    -4.917000000
C    -0.617000000    -5.479000000    -3.935000000
H    -1.223000000    -6.362000000    -4.121000000
C     0.225000000    -5.347000000    -2.794000000
O     0.130000000    -6.307000000    -1.832000000
C     1.033000000    -6.416000000    -0.771000000
C     2.367000000    -6.531000000    -1.096000000
H     2.663000000    -6.519000000    -2.142000000
C     3.310000000    -6.714000000    -0.099000000
H     4.355000000    -6.938000000    -0.297000000
C     2.847000000    -6.584000000     1.201000000
H     3.589000000    -6.634000000     1.994000000
C     1.546000000    -6.273000000     1.533000000
C     0.641000000    -6.167000000     0.531000000
H    -0.375000000    -5.905000000     0.815000000
C    -1.120000000    -2.097000000    -1.314000000
H    -1.447000000    -2.598000000    -2.221000000
C    -0.418000000    -0.874000000    -1.427000000
H    -0.310000000    -0.437000000    -2.417000000
C     0.036000000    -0.255000000    -0.281000000
C     1.025000000     0.811000000    -0.317000000
H     1.704000000     0.589000000    -1.143000000
H     0.504000000     1.741000000    -0.551000000
H     1.657000000     0.856000000     0.572000000
C    -0.227000000    -0.742000000     1.008000000
H     0.147000000    -0.296000000     1.926000000
C    -0.942000000    -1.938000000     1.173000000
H    -1.034000000    -2.370000000     2.166000000
C    -1.366000000    -2.634000000     0.009000000
C    -2.172000000    -3.900000000     0.145000000
O    -2.476000000    -4.321000000     1.285000000
O    -2.624000000    -4.419000000    -0.847000000
O    -3.290000000    -3.444000000     3.613000000
H    -3.015000000    -3.765000000     2.754000000
H    -3.897000000    -2.729000000     3.419000000
O    -7.787000000    -6.757000000    -2.673000000
H    -7.820000000    -6.096000000    -1.982000000
H    -7.008000000    -7.275000000    -2.472000000
O    -7.620000000    -2.604000000     0.114000000
H    -7.825000000    -2.753000000    -0.809000000
H    -6.713000000    -2.893000000     0.208000000
O    -8.456000000    -5.563000000    -0.193000000
H    -8.359000000    -4.887000000    -0.864000000
H    -9.278000000    -5.345000000     0.248000000
O    -7.037000000    -1.539000000     4.208000000
H    -6.329000000    -1.468000000     3.567000000
H    -6.662000000    -1.193000000     5.018000000
O    -6.778000000    -6.289000000     2.222000000
H    -7.563000000    -6.169000000     1.689000000
H    -6.219000000    -5.546000000     1.996000000
O    -2.644000000    -7.113000000    -1.321000000
H    -2.341000000    -6.217000000    -1.174000000
H    -3.429000000    -7.014000000    -1.860000000
O    -0.847000000    -9.055000000     4.068000000
H    -1.418000000    -8.348000000     4.369000000
H    -1.418000000    -9.620000000     3.548000000
O    -2.024000000   -10.013000000    -1.731000000
H    -2.970000000   -10.091000000    -1.853000000
H    -1.888000000    -9.096000000    -1.493000000
O    -3.515000000    -0.490000000     0.387000000
H    -2.744000000    -0.862000000    -0.042000000
H    -3.680000000     0.327000000    -0.085000000
O    -2.348000000    -4.379000000     6.023000000
H    -2.680000000    -4.033000000     5.194000000
H    -2.767000000    -3.837000000     6.693000000
O    -4.837000000    -1.498000000     2.682000000
H    -4.351000000    -0.957000000     2.059000000
H    -5.184000000    -2.217000000     2.155000000
O    -3.187000000   -10.074000000     2.175000000
H    -4.044000000    -9.801000000     2.503000000
H    -2.845000000    -9.301000000     1.727000000
O    -2.672000000    -7.480000000     1.365000000
H    -2.554000000    -6.537000000     1.482000000
H    -2.538000000    -7.623000000     0.428000000
O    -5.258000000    -4.582000000    -1.161000000
H    -4.385000000    -4.380000000    -0.824000000
H    -5.101000000    -5.188000000    -1.884000000
O    -5.052000000    -7.093000000    -2.680000000
H    -5.064000000    -8.042000000    -2.797000000
H    -5.130000000    -6.741000000    -3.567000000
O    -7.017000000    -4.372000000     4.858000000
H    -7.018000000    -4.431000000     3.903000000
H    -6.998000000    -3.433000000     5.041000000
O    -3.205000000    -7.420000000     4.077000000
H    -3.186000000    -6.529000000     4.426000000
H    -3.195000000    -7.306000000     3.127000000
O    -5.205000000    -4.233000000     1.374000000
H    -4.270000000    -4.371000000     1.525000000
H    -5.319000000    -4.368000000     0.433000000
