218
-1450.89584
C    -3.315000000    -3.762000000    -2.331000000
H    -3.477000000    -3.383000000    -3.337000000
C    -3.560000000    -2.969000000    -1.220000000
C    -3.338000000    -3.546000000     0.020000000
H    -3.341000000    -2.903000000     0.897000000
C    -3.834000000    -1.440000000    -1.344000000
O    -4.063000000    -0.995000000    -2.743000000
H    -2.938000000    -0.916000000    -0.981000000
O    -4.924000000    -1.058000000    -0.470000000
C    -4.643000000     0.164000000     0.244000000
C    -4.453000000     0.041000000     1.578000000
H    -4.268000000    -0.900000000     2.089000000
C    -4.019000000     1.104000000     2.382000000
O    -3.446000000     0.765000000     3.575000000
C    -3.959000000     2.373000000     1.794000000
C    -3.481000000     3.669000000     2.451000000
H    -3.994000000     4.540000000     2.037000000
C    -1.946000000     3.903000000     2.290000000
C    -1.378000000     4.605000000     1.263000000
H    -2.134000000     4.983000000     0.579000000
H    -3.811000000     3.682000000     3.491000000
C    -4.258000000     2.487000000     0.439000000
H    -4.183000000     3.461000000    -0.037000000
C    -4.604000000     1.428000000    -0.329000000
C    -4.800000000     1.683000000    -1.813000000
H    -4.967000000     2.753000000    -1.956000000
H    -5.668000000     1.219000000    -2.288000000
C    -3.570000000     1.317000000    -2.652000000
C    -2.886000000     2.417000000    -3.205000000
H    -3.086000000     3.434000000    -2.879000000
C    -3.299000000     0.066000000    -3.172000000
C    -2.207000000    -0.181000000    -4.021000000
H    -1.836000000    -1.190000000    -4.180000000
C    -1.496000000     0.885000000    -4.463000000
O    -0.302000000     0.647000000    -5.110000000
C     0.922000000     0.600000000    -4.233000000
C     1.787000000    -0.573000000    -4.550000000
C     3.142000000    -0.584000000    -4.226000000
H     3.602000000     0.316000000    -3.825000000
C     1.191000000    -1.717000000    -5.024000000
H     0.158000000    -1.693000000    -5.359000000
O     1.646000000     1.828000000    -4.375000000
H     0.618000000     0.312000000    -3.216000000
C    -1.790000000     2.172000000    -4.093000000
C    -0.922000000     3.296000000    -4.473000000
H    -1.624000000     4.127000000    -4.559000000
H    -0.414000000     3.295000000    -5.439000000
C     0.164000000     3.493000000    -3.370000000
C    -0.112000000     4.395000000    -2.314000000
H    -1.085000000     4.880000000    -2.318000000
C     1.374000000     2.795000000    -3.449000000
C     2.416000000     2.949000000    -2.489000000
H     3.267000000     2.277000000    -2.408000000
C     2.139000000     3.806000000    -1.408000000
O     2.945000000     3.776000000    -0.334000000
C     2.614000000     2.994000000     0.823000000
C     3.795000000     2.248000000     1.313000000
C     4.801000000     1.713000000     0.432000000
H     4.839000000     1.899000000    -0.639000000
C     3.804000000     1.812000000     2.691000000
H     2.963000000     2.047000000     3.339000000
O     2.184000000     3.895000000     1.826000000
H     1.927000000     2.214000000     0.463000000
C     0.874000000     4.533000000    -1.342000000
C     0.579000000     5.420000000    -0.115000000
H    -0.152000000     6.089000000    -0.575000000
H     1.491000000     5.983000000     0.096000000
C    -0.022000000     4.656000000     1.059000000
C     0.822000000     4.033000000     2.045000000
C     0.247000000     3.328000000     3.131000000
H     0.937000000     2.774000000     3.762000000
C    -1.102000000     3.268000000     3.236000000
O    -1.674000000     2.446000000     4.149000000
C    -1.995000000     1.067000000     3.732000000
H    -1.504000000     0.969000000     2.753000000
C    -1.332000000     0.083000000     4.698000000
C    -1.859000000    -1.204000000     4.729000000
H    -2.668000000    -1.435000000     4.040000000
C    -0.229000000     0.313000000     5.556000000
H     0.264000000     1.276000000     5.455000000
C     0.262000000    -0.619000000     6.443000000
O     1.330000000    -0.365000000     7.281000000
C    -0.390000000    -1.851000000     6.473000000
H    -0.093000000    -2.607000000     7.196000000
C    -1.408000000    -2.206000000     5.624000000
O    -2.133000000    -3.403000000     5.803000000
C    -2.850000000    -3.959000000     4.808000000
C    -2.319000000    -4.422000000     3.610000000
H    -1.251000000    -4.301000000     3.448000000
C    -4.218000000    -3.961000000     4.983000000
H    -4.607000000    -3.489000000     5.881000000
C    -5.108000000    -4.435000000     3.953000000
H    -6.158000000    -4.425000000     4.232000000
C    -4.558000000    -4.887000000     2.781000000
H    -5.158000000    -5.308000000     1.979000000
C    -3.180000000    -4.941000000     2.567000000
O    -2.624000000    -5.373000000     1.396000000
C    -2.943000000    -4.855000000     0.159000000
C    -2.707000000    -5.631000000    -0.946000000
H    -2.436000000    -6.677000000    -0.828000000
C    -2.866000000    -5.080000000    -2.229000000
O    -2.518000000    -5.819000000    -3.378000000
C    -1.868000000    -5.285000000    -4.454000000
C    -0.561000000    -4.907000000    -4.346000000
H     0.012000000    -5.091000000    -3.441000000
C    -2.544000000    -5.148000000    -5.741000000
H    -3.612000000    -5.353000000    -5.750000000
C    -1.895000000    -4.624000000    -6.833000000
H    -2.380000000    -4.510000000    -7.800000000
C    -0.603000000    -4.183000000    -6.660000000
H    -0.218000000    -3.768000000    -7.588000000
C     0.077000000    -4.372000000    -5.517000000
O     1.383000000    -4.144000000    -5.420000000
C     1.924000000    -2.919000000    -5.092000000
C     3.212000000    -2.914000000    -4.638000000
H     3.746000000    -3.860000000    -4.609000000
C     3.796000000    -1.786000000    -4.162000000
O     5.098000000    -1.882000000    -3.823000000
C     5.865000000    -0.928000000    -3.227000000
C     5.731000000    -0.696000000    -1.850000000
H     5.248000000    -1.417000000    -1.195000000
C     6.442000000     0.079000000    -3.985000000
H     6.421000000     0.053000000    -5.071000000
C     7.055000000     1.158000000    -3.449000000
H     7.367000000     1.948000000    -4.127000000
C     7.184000000     1.193000000    -2.053000000
H     7.648000000     2.037000000    -1.550000000
C     6.529000000     0.290000000    -1.250000000
O     6.633000000     0.354000000     0.093000000
C     5.783000000     0.854000000     0.963000000
C     5.846000000     0.617000000     2.332000000
H     6.613000000    -0.033000000     2.744000000
C     4.850000000     1.045000000     3.154000000
O     5.046000000     0.619000000     4.470000000
C     4.249000000     0.950000000     5.537000000
C     4.438000000     2.174000000     6.131000000
H     5.216000000     2.846000000     5.780000000
C     3.633000000     2.603000000     7.212000000
H     3.780000000     3.590000000     7.642000000
C     2.585000000     1.702000000     7.688000000
H     1.837000000     2.040000000     8.401000000
C     2.400000000     0.470000000     6.988000000
C     3.253000000     0.099000000     5.993000000
H     3.146000000    -0.816000000     5.416000000
C     1.049000000    -2.423000000    -1.379000000
H     1.014000000    -3.041000000    -2.272000000
C     0.095000000    -1.350000000    -1.202000000
H    -0.781000000    -1.225000000    -1.833000000
C     0.146000000    -0.439000000    -0.152000000
C    -0.860000000     0.655000000     0.002000000
H    -1.277000000     0.973000000    -0.956000000
H    -1.672000000     0.270000000     0.623000000
H    -0.424000000     1.466000000     0.588000000
C     1.206000000    -0.573000000     0.795000000
H     1.242000000     0.222000000     1.536000000
C     2.195000000    -1.600000000     0.583000000
H     3.045000000    -1.604000000     1.260000000
C     2.157000000    -2.494000000    -0.518000000
C     3.260000000    -3.581000000    -0.609000000
O     4.146000000    -3.707000000     0.252000000
O     3.005000000    -4.618000000    -1.204000000
O     2.387000000    -2.650000000     3.637000000
H     2.998000000    -2.156000000     3.090000000
H     1.943000000    -3.240000000     3.027000000
O     7.589000000    -7.123000000    -0.323000000
H     7.587000000    -6.534000000    -1.078000000
H     6.884000000    -7.745000000    -0.504000000
O     6.643000000    -4.411000000    -0.964000000
H     5.934000000    -4.135000000    -0.383000000
H     6.199000000    -4.825000000    -1.704000000
O     4.663000000    -6.249000000     1.364000000
H     4.413000000    -5.441000000     0.915000000
H     5.445000000    -6.548000000     0.901000000
O     8.788000000    -2.799000000    -0.770000000
H     8.025000000    -3.354000000    -0.933000000
H     9.061000000    -2.505000000    -1.639000000
O     1.907000000    -7.243000000    -2.603000000
H     2.066000000    -8.006000000    -2.048000000
H     2.089000000    -6.493000000    -2.037000000
O     4.276000000    -4.481000000     5.092000000
H     3.453000000    -4.266000000     4.652000000
H     4.537000000    -5.320000000     4.713000000
O     5.074000000    -8.482000000    -0.379000000
H     5.296000000    -9.109000000     0.310000000
H     4.143000000    -8.628000000    -0.545000000
O     7.743000000    -2.274000000     1.582000000
H     8.108000000    -2.377000000     0.703000000
H     7.713000000    -1.327000000     1.719000000
O    -0.194000000    -7.265000000     2.728000000
H    -0.084000000    -6.353000000     2.459000000
H     0.670000000    -7.657000000     2.607000000
O     9.122000000    -5.903000000     1.721000000
H     8.518000000    -5.938000000     2.463000000
H     8.575000000    -6.094000000     0.959000000
O     3.611000000    -7.339000000    -4.784000000
H     2.904000000    -6.903000000    -4.309000000
H     3.836000000    -8.094000000    -4.240000000
O     1.237000000    -5.050000000     1.677000000
H     2.103000000    -5.143000000     2.074000000
H     1.361000000    -5.318000000     0.767000000
O     2.452000000    -7.947000000     1.921000000
H     2.679000000    -8.694000000     2.475000000
H     3.286000000    -7.508000000     1.757000000
O     2.409000000    -9.148000000    -0.585000000
H     2.264000000   -10.021000000    -0.221000000
H     2.128000000    -8.550000000     0.108000000
O     5.351000000    -7.609000000     3.863000000
H     4.471000000    -7.487000000     4.220000000
H     5.340000000    -7.134000000     3.032000000
O     6.929000000    -7.566000000    -3.363000000
H     7.482000000    -6.923000000    -3.805000000
H     6.125000000    -7.090000000    -3.156000000
O     4.997000000    -2.464000000     2.237000000
H     4.779000000    -2.896000000     1.411000000
H     5.898000000    -2.164000000     2.119000000
O     4.874000000    -5.659000000    -2.700000000
H     4.252000000    -5.317000000    -2.058000000
H     4.328000000    -5.968000000    -3.422000000
