218
-1451.49008
C    -2.343000000    -3.813000000    -2.816000000
H    -2.045000000    -3.180000000    -3.647000000
C    -3.060000000    -3.280000000    -1.694000000
C    -3.317000000    -4.092000000    -0.578000000
H    -3.724000000    -3.693000000     0.348000000
C    -3.531000000    -1.830000000    -1.581000000
O    -3.836000000    -1.379000000    -2.901000000
H    -2.730000000    -1.242000000    -1.110000000
O    -4.644000000    -1.719000000    -0.636000000
C    -4.671000000    -0.663000000     0.221000000
C    -4.237000000    -0.826000000     1.538000000
H    -3.944000000    -1.822000000     1.860000000
C    -4.004000000     0.276000000     2.398000000
O    -3.435000000    -0.082000000     3.576000000
C    -4.206000000     1.594000000     1.965000000
C    -3.862000000     2.801000000     2.824000000
H    -4.534000000     3.600000000     2.501000000
C    -2.416000000     3.227000000     2.820000000
C    -2.014000000     4.195000000     1.976000000
H    -2.769000000     4.702000000     1.380000000
H    -4.190000000     2.744000000     3.864000000
C    -4.758000000     1.732000000     0.651000000
H    -4.820000000     2.770000000     0.335000000
C    -4.864000000     0.678000000    -0.237000000
C    -5.289000000     0.875000000    -1.694000000
H    -5.858000000     1.807000000    -1.682000000
H    -5.952000000     0.062000000    -1.998000000
C    -4.023000000     0.985000000    -2.544000000
C    -3.414000000     2.213000000    -2.836000000
H    -3.926000000     3.128000000    -2.549000000
C    -3.513000000    -0.117000000    -3.225000000
C    -2.403000000     0.015000000    -4.104000000
H    -1.966000000    -0.911000000    -4.468000000
C    -1.697000000     1.154000000    -4.214000000
O    -0.474000000     1.201000000    -4.874000000
C     0.681000000     1.291000000    -4.039000000
C     1.823000000     0.270000000    -4.481000000
C     3.198000000     0.501000000    -4.211000000
H     3.387000000     1.466000000    -3.748000000
C     1.511000000    -0.975000000    -5.185000000
H     0.492000000    -1.237000000    -5.457000000
O     1.166000000     2.658000000    -3.951000000
H     0.353000000     1.055000000    -3.016000000
C    -2.253000000     2.324000000    -3.611000000
C    -1.541000000     3.692000000    -3.728000000
H    -2.259000000     4.509000000    -3.632000000
H    -1.061000000     3.853000000    -4.696000000
C    -0.484000000     3.908000000    -2.660000000
C    -0.730000000     4.629000000    -1.477000000
H    -1.746000000     4.913000000    -1.214000000
C     0.786000000     3.400000000    -2.805000000
C     1.780000000     3.618000000    -1.885000000
H     2.747000000     3.151000000    -2.053000000
C     1.522000000     4.322000000    -0.711000000
O     2.509000000     4.342000000     0.264000000
C     2.381000000     3.483000000     1.447000000
C     3.712000000     2.790000000     1.823000000
C     4.563000000     2.442000000     0.768000000
H     4.304000000     2.725000000    -0.249000000
C     3.906000000     2.246000000     3.105000000
H     3.103000000     2.401000000     3.822000000
O     1.596000000     4.086000000     2.538000000
H     1.834000000     2.613000000     1.056000000
C     0.221000000     4.806000000    -0.472000000
C    -0.166000000     5.510000000     0.806000000
H    -0.975000000     6.234000000     0.692000000
H     0.619000000     6.191000000     1.142000000
C    -0.634000000     4.517000000     1.822000000
C     0.255000000     3.836000000     2.637000000
C    -0.219000000     2.949000000     3.659000000
H     0.563000000     2.507000000     4.271000000
C    -1.584000000     2.652000000     3.792000000
O    -1.971000000     1.541000000     4.535000000
C    -2.062000000     0.320000000     3.865000000
H    -1.634000000     0.411000000     2.856000000
C    -1.263000000    -0.829000000     4.512000000
C    -1.656000000    -2.126000000     4.309000000
H    -2.462000000    -2.255000000     3.592000000
C    -0.160000000    -0.542000000     5.309000000
H     0.187000000     0.441000000     5.617000000
C     0.542000000    -1.688000000     5.830000000
O     1.607000000    -1.481000000     6.735000000
C     0.130000000    -3.009000000     5.626000000
H     0.690000000    -3.821000000     6.083000000
C    -0.966000000    -3.204000000     4.822000000
O    -1.328000000    -4.534000000     4.534000000
C    -2.446000000    -4.905000000     3.858000000
C    -2.280000000    -5.540000000     2.644000000
H    -1.264000000    -5.713000000     2.300000000
C    -3.724000000    -4.416000000     4.115000000
H    -3.838000000    -3.986000000     5.107000000
C    -4.856000000    -4.714000000     3.272000000
H    -5.895000000    -4.512000000     3.518000000
C    -4.572000000    -5.435000000     2.090000000
H    -5.376000000    -5.643000000     1.390000000
C    -3.273000000    -5.732000000     1.784000000
O    -2.927000000    -6.207000000     0.504000000
C    -2.858000000    -5.424000000    -0.603000000
C    -2.047000000    -5.850000000    -1.638000000
H    -1.680000000    -6.871000000    -1.707000000
C    -1.769000000    -5.120000000    -2.789000000
O    -0.984000000    -5.655000000    -3.798000000
C    -0.652000000    -5.043000000    -4.887000000
C     0.505000000    -4.421000000    -4.974000000
H     1.205000000    -4.412000000    -4.142000000
C    -1.562000000    -4.975000000    -6.004000000
H    -2.554000000    -5.417000000    -6.054000000
C    -1.180000000    -4.382000000    -7.160000000
H    -1.826000000    -4.307000000    -8.031000000
C     0.078000000    -3.784000000    -7.268000000
H     0.105000000    -3.107000000    -8.118000000
C     0.859000000    -3.736000000    -6.128000000
O     2.132000000    -3.127000000    -6.079000000
C     2.517000000    -1.898000000    -5.421000000
C     3.863000000    -1.567000000    -5.260000000
H     4.659000000    -2.268000000    -5.495000000
C     4.209000000    -0.333000000    -4.607000000
O     5.552000000    -0.056000000    -4.370000000
C     5.991000000     0.875000000    -3.560000000
C     6.155000000     0.502000000    -2.226000000
H     5.982000000    -0.517000000    -1.889000000
C     6.239000000     2.170000000    -3.926000000
H     6.124000000     2.490000000    -4.958000000
C     6.714000000     3.084000000    -2.993000000
H     6.883000000     4.116000000    -3.288000000
C     6.867000000     2.691000000    -1.660000000
H     7.123000000     3.452000000    -0.927000000
C     6.503000000     1.437000000    -1.230000000
O     6.536000000     1.078000000     0.100000000
C     5.711000000     1.643000000     1.062000000
C     5.941000000     1.184000000     2.300000000
H     6.728000000     0.445000000     2.435000000
C     5.027000000     1.453000000     3.369000000
O     5.154000000     0.788000000     4.600000000
C     4.143000000     0.779000000     5.598000000
C     4.261000000     1.689000000     6.663000000
H     5.103000000     2.377000000     6.662000000
C     3.513000000     1.510000000     7.874000000
H     3.613000000     2.137000000     8.757000000
C     2.503000000     0.461000000     7.896000000
H     1.907000000     0.205000000     8.768000000
C     2.393000000    -0.381000000     6.712000000
C     3.184000000    -0.226000000     5.603000000
H     3.100000000    -0.939000000     4.787000000
C     1.216000000    -1.887000000    -1.957000000
H     1.063000000    -2.570000000    -2.788000000
C     0.211000000    -0.951000000    -1.535000000
H    -0.727000000    -0.942000000    -2.084000000
C     0.458000000    -0.076000000    -0.487000000
C    -0.552000000     1.010000000    -0.151000000
H    -1.562000000     0.739000000    -0.464000000
H    -0.542000000     1.062000000     0.940000000
H    -0.189000000     1.963000000    -0.541000000
C     1.671000000    -0.210000000     0.187000000
H     1.922000000     0.450000000     1.013000000
C     2.765000000    -0.990000000    -0.309000000
H     3.788000000    -1.061000000     0.053000000
C     2.483000000    -1.856000000    -1.363000000
C     3.482000000    -2.887000000    -1.915000000
O     4.651000000    -2.691000000    -1.630000000
O     3.052000000    -3.858000000    -2.494000000
O     3.902000000    -3.672000000     2.803000000
H     4.715000000    -3.604000000     2.302000000
H     3.217000000    -3.738000000     2.138000000
O     8.573000000    -4.128000000    -1.328000000
H     8.578000000    -4.206000000    -2.282000000
H     7.668000000    -4.316000000    -1.078000000
O     6.326000000    -4.034000000    -3.329000000
H     5.882000000    -3.536000000    -2.643000000
H     5.626000000    -4.530000000    -3.755000000
O     5.859000000    -5.362000000     0.314000000
H     5.890000000    -4.410000000     0.413000000
H     6.386000000    -5.695000000     1.041000000
O     4.083000000    -6.194000000    -1.923000000
H     4.459000000    -6.185000000    -1.043000000
H     4.005000000    -5.269000000    -2.158000000
O     8.123000000    -1.210000000     0.814000000
H     8.613000000    -1.167000000    -0.007000000
H     7.755000000    -0.333000000     0.919000000
O     0.716000000    -7.654000000    -5.761000000
H    -0.189000000    -7.345000000    -5.723000000
H     1.011000000    -7.645000000    -4.851000000
O     1.542000000    -5.618000000     3.167000000
H     1.599000000    -4.935000000     2.498000000
H     1.870000000    -6.406000000     2.733000000
O     9.871000000    -3.643000000     0.967000000
H     9.509000000    -2.893000000     1.439000000
H     9.334000000    -3.712000000     0.178000000
O     1.453000000    -6.712000000    -2.842000000
H     0.828000000    -6.000000000    -2.707000000
H     2.311000000    -6.292000000    -2.776000000
O     5.475000000    -8.168000000    -3.366000000
H     5.112000000    -7.408000000    -2.911000000
H     6.009000000    -8.610000000    -2.706000000
O     1.821000000    -3.883000000     0.867000000
H     2.013000000    -4.157000000    -0.029000000
H     1.126000000    -3.231000000     0.774000000
O     3.024000000    -7.296000000     1.521000000
H     3.273000000    -8.020000000     2.096000000
H     3.747000000    -6.672000000     1.595000000
O     9.951000000    -2.784000000    -3.898000000
H    10.553000000    -3.293000000    -4.442000000
H     9.147000000    -2.732000000    -4.415000000
O     7.577000000    -2.949000000    -5.402000000
H     6.977000000    -2.353000000    -5.850000000
H     7.095000000    -3.237000000    -4.627000000
O     6.120000000    -1.293000000    -7.390000000
H     6.427000000    -0.392000000    -7.497000000
H     5.184000000    -1.252000000    -7.586000000
O     3.334000000    -6.879000000    -6.520000000
H     2.464000000    -7.220000000    -6.310000000
H     3.679000000    -6.570000000    -5.683000000
O     5.927000000    -2.861000000     0.680000000
H     5.572000000    -2.704000000    -0.195000000
H     6.596000000    -2.186000000     0.791000000
O     3.927000000    -4.902000000    -4.680000000
H     3.656000000    -4.550000000    -3.832000000
H     3.424000000    -4.399000000    -5.320000000
