218
-1470.81847
C    -2.859000000     1.340000000     4.053000000
H    -2.976000000     2.246000000     3.464000000
C    -1.571000000     0.842000000     4.305000000
C    -1.531000000    -0.432000000     4.931000000
H    -0.542000000    -0.844000000     5.110000000
C    -0.356000000     1.554000000     3.869000000
O    -0.476000000     3.003000000     3.866000000
H    -0.156000000     1.201000000     2.847000000
O     0.812000000     1.314000000     4.763000000
C     2.055000000     0.925000000     4.115000000
C     2.323000000    -0.398000000     3.890000000
H     1.731000000    -1.183000000     4.355000000
C     3.358000000    -0.732000000     3.012000000
O     3.506000000    -2.042000000     2.735000000
C     4.200000000     0.252000000     2.422000000
C     5.358000000    -0.016000000     1.494000000
H     6.059000000     0.812000000     1.618000000
C     5.014000000    -0.265000000     0.063000000
C     4.989000000     0.774000000    -0.868000000
H     5.384000000     1.731000000    -0.535000000
H     5.919000000    -0.913000000     1.765000000
C     3.893000000     1.603000000     2.716000000
H     4.558000000     2.357000000     2.301000000
C     2.840000000     1.936000000     3.619000000
C     2.538000000     3.457000000     3.880000000
H     3.484000000     3.988000000     3.748000000
H     2.149000000     3.600000000     4.890000000
C     1.512000000     3.940000000     2.765000000
C     2.007000000     4.490000000     1.557000000
H     3.090000000     4.575000000     1.518000000
C     0.151000000     3.713000000     2.878000000
C    -0.745000000     4.115000000     1.868000000
H    -1.813000000     3.959000000     1.998000000
C    -0.225000000     4.849000000     0.724000000
O    -1.137000000     5.189000000    -0.294000000
C    -1.299000000     4.098000000    -1.242000000
C    -2.740000000     3.710000000    -1.493000000
C    -3.116000000     3.083000000    -2.651000000
H    -2.316000000     2.987000000    -3.380000000
C    -3.732000000     3.880000000    -0.543000000
H    -3.406000000     4.339000000     0.387000000
O    -0.598000000     4.523000000    -2.426000000
H    -0.801000000     3.230000000    -0.785000000
C     1.171000000     4.928000000     0.554000000
C     1.726000000     5.428000000    -0.753000000
H     2.720000000     5.865000000    -0.630000000
H     1.189000000     6.242000000    -1.244000000
C     1.775000000     4.291000000    -1.768000000
C     2.963000000     3.616000000    -1.987000000
H     3.875000000     3.924000000    -1.482000000
C     0.696000000     4.022000000    -2.629000000
C     0.769000000     2.835000000    -3.408000000
H    -0.120000000     2.571000000    -3.976000000
C     1.872000000     2.014000000    -3.457000000
O     1.769000000     0.848000000    -4.195000000
C     1.832000000    -0.433000000    -3.581000000
C     0.729000000    -1.337000000    -4.054000000
C    -0.270000000    -0.853000000    -4.932000000
H    -0.241000000     0.187000000    -5.247000000
C     0.712000000    -2.626000000    -3.677000000
H     1.461000000    -2.945000000    -2.956000000
O     3.138000000    -0.970000000    -3.637000000
H     1.676000000    -0.188000000    -2.520000000
C     3.031000000     2.450000000    -2.838000000
C     4.405000000     1.775000000    -3.024000000
H     5.231000000     2.460000000    -2.822000000
H     4.608000000     1.358000000    -4.012000000
C     4.448000000     0.548000000    -2.147000000
C     3.903000000    -0.723000000    -2.469000000
C     4.119000000    -1.762000000    -1.598000000
H     3.598000000    -2.697000000    -1.787000000
C     4.651000000    -1.559000000    -0.375000000
O     4.481000000    -2.595000000     0.527000000
C     3.307000000    -2.571000000     1.365000000
H     2.582000000    -1.919000000     0.855000000
C     2.675000000    -3.993000000     1.520000000
C     1.629000000    -4.152000000     2.422000000
H     1.523000000    -3.462000000     3.256000000
C     2.939000000    -4.929000000     0.486000000
H     3.884000000    -4.950000000    -0.050000000
C     2.113000000    -6.045000000     0.424000000
O     2.193000000    -7.020000000    -0.543000000
C     1.083000000    -6.223000000     1.353000000
H     0.435000000    -7.090000000     1.262000000
C     0.880000000    -5.319000000     2.303000000
O    -0.131000000    -5.572000000     3.198000000
C    -0.324000000    -4.886000000     4.370000000
C    -1.377000000    -3.972000000     4.534000000
H    -1.902000000    -3.716000000     3.618000000
C     0.432000000    -5.236000000     5.468000000
H     1.168000000    -6.032000000     5.387000000
C     0.196000000    -4.672000000     6.749000000
H     0.868000000    -4.972000000     7.549000000
C    -0.766000000    -3.678000000     6.874000000
H    -0.868000000    -3.200000000     7.845000000
C    -1.541000000    -3.288000000     5.776000000
O    -2.558000000    -2.291000000     5.906000000
C    -2.685000000    -1.219000000     5.110000000
C    -3.885000000    -0.714000000     4.819000000
H    -4.823000000    -1.187000000     5.098000000
C    -3.979000000     0.539000000     4.247000000
O    -5.314000000     0.870000000     3.836000000
C    -5.763000000     2.050000000     3.312000000
C    -5.769000000     2.278000000     1.943000000
H    -5.514000000     1.511000000     1.216000000
C    -6.224000000     2.971000000     4.268000000
H    -6.278000000     2.662000000     5.309000000
C    -6.588000000     4.238000000     3.801000000
H    -6.749000000     5.040000000     4.517000000
C    -6.519000000     4.542000000     2.452000000
H    -6.852000000     5.510000000     2.089000000
C    -6.113000000     3.563000000     1.493000000
O    -6.132000000     3.926000000     0.120000000
C    -5.077000000     3.481000000    -0.740000000
C    -5.389000000     2.907000000    -1.962000000
H    -6.382000000     2.524000000    -2.183000000
C    -4.411000000     2.701000000    -2.927000000
O    -4.801000000     2.234000000    -4.177000000
C    -4.002000000     1.850000000    -5.201000000
C    -3.627000000     0.504000000    -5.300000000
H    -3.908000000    -0.171000000    -4.495000000
C    -3.880000000     2.654000000    -6.353000000
H    -4.259000000     3.673000000    -6.388000000
C    -3.122000000     2.181000000    -7.412000000
H    -2.897000000     2.859000000    -8.232000000
C    -2.496000000     0.912000000    -7.409000000
H    -1.833000000     0.574000000    -8.201000000
C    -2.696000000     0.101000000    -6.292000000
O    -2.163000000    -1.099000000    -6.377000000
C    -1.241000000    -1.635000000    -5.497000000
C    -1.157000000    -2.982000000    -5.234000000
H    -1.884000000    -3.634000000    -5.712000000
C    -0.221000000    -3.453000000    -4.340000000
O    -0.185000000    -4.865000000    -4.154000000
C     0.945000000    -5.537000000    -3.679000000
C     1.744000000    -6.210000000    -4.606000000
H     1.658000000    -5.965000000    -5.662000000
C     2.676000000    -7.198000000    -4.167000000
H     3.263000000    -7.681000000    -4.945000000
C     2.773000000    -7.462000000    -2.801000000
H     3.420000000    -8.237000000    -2.397000000
C     2.042000000    -6.733000000    -1.890000000
C     1.041000000    -5.839000000    -2.328000000
H     0.356000000    -5.338000000    -1.648000000
C    -1.542000000    -1.431000000    -1.711000000
H    -2.150000000    -1.504000000    -2.610000000
C    -0.630000000    -0.415000000    -1.420000000
H    -0.460000000     0.288000000    -2.231000000
C     0.122000000    -0.338000000    -0.265000000
C     0.998000000     0.858000000    -0.070000000
H     0.907000000     1.569000000    -0.894000000
H     0.706000000     1.255000000     0.905000000
H     2.062000000     0.678000000     0.102000000
C    -0.235000000    -1.176000000     0.758000000
H     0.199000000    -1.013000000     1.741000000
C    -1.143000000    -2.231000000     0.558000000
H    -1.331000000    -2.946000000     1.355000000
C    -1.753000000    -2.366000000    -0.687000000
C    -2.772000000    -3.395000000    -0.940000000
O    -2.749000000    -4.323000000    -0.135000000
O    -3.535000000    -3.357000000    -1.910000000
O    -2.987000000    -6.531000000     2.405000000
H    -3.158000000    -5.783000000     1.833000000
H    -2.694000000    -7.224000000     1.813000000
O    -1.008000000    -8.953000000    -3.879000000
H    -0.702000000    -9.112000000    -2.987000000
H    -1.585000000    -8.193000000    -3.802000000
O    -7.198000000    -0.655000000    -2.873000000
H    -7.598000000    -0.016000000    -3.463000000
H    -7.906000000    -0.909000000    -2.281000000
O    -5.514000000    -7.378000000    -1.328000000
H    -5.918000000    -6.642000000    -0.868000000
H    -4.629000000    -7.077000000    -1.530000000
O    -3.102000000    -7.093000000    -4.388000000
H    -2.640000000    -6.505000000    -3.790000000
H    -4.013000000    -6.804000000    -4.353000000
O    -3.036000000    -0.065000000     0.453000000
H    -2.309000000    -0.201000000    -0.154000000
H    -3.820000000    -0.171000000    -0.086000000
O    -5.954000000    -4.702000000     3.886000000
H    -5.177000000    -4.534000000     3.353000000
H    -5.945000000    -4.011000000     4.548000000
O    -5.683000000    -1.202000000     1.459000000
H    -4.929000000    -0.655000000     1.681000000
H    -5.794000000    -1.087000000     0.516000000
O    -8.234000000    -3.505000000     0.626000000
H    -8.618000000    -4.374000000     0.739000000
H    -7.290000000    -3.662000000     0.597000000
O    -2.631000000    -6.732000000    -1.248000000
H    -2.344000000    -7.425000000    -0.654000000
H    -2.509000000    -5.924000000    -0.750000000
O    -6.634000000    -3.683000000    -2.208000000
H    -6.460000000    -4.014000000    -1.327000000
H    -5.952000000    -3.029000000    -2.357000000
O    -5.246000000    -1.971000000    -6.726000000
H    -4.905000000    -1.962000000    -5.831000000
H    -4.795000000    -2.702000000    -7.147000000
O    -9.049000000    -3.412000000    -3.535000000
H    -9.135000000    -2.756000000    -4.226000000
H    -8.153000000    -3.307000000    -3.215000000
O    -1.526000000    -8.725000000     0.840000000
H    -1.168000000    -9.299000000     1.517000000
H    -0.928000000    -8.825000000     0.100000000
O    -4.347000000    -2.945000000    -4.262000000
H    -4.060000000    -3.233000000    -3.396000000
H    -4.650000000    -3.744000000    -4.692000000
O    -4.131000000    -3.640000000     2.104000000
H    -3.377000000    -3.607000000     1.515000000
H    -4.544000000    -2.781000000     2.012000000
O    -4.830000000    -0.760000000    -1.533000000
H    -5.577000000    -0.747000000    -2.131000000
H    -4.347000000    -1.552000000    -1.769000000
O    -5.652000000    -5.671000000    -4.356000000
H    -6.341000000    -5.731000000    -5.018000000
H    -6.020000000    -5.102000000    -3.679000000
O    -5.614000000    -4.791000000     0.170000000
H    -4.685000000    -4.909000000    -0.030000000
H    -5.626000000    -4.472000000     1.072000000
