218
-1474.16741
C    -2.813000000     1.416000000     4.512000000
H    -2.843000000     2.482000000     4.300000000
C    -1.569000000     0.796000000     4.297000000
C    -1.594000000    -0.620000000     4.419000000
H    -0.657000000    -1.086000000     4.125000000
C    -0.324000000     1.505000000     3.759000000
O    -0.408000000     2.998000000     3.845000000
H    -0.211000000     1.222000000     2.703000000
O     0.866000000     1.010000000     4.516000000
C     2.090000000     0.846000000     3.784000000
C     2.522000000    -0.416000000     3.503000000
H     1.998000000    -1.317000000     3.813000000
C     3.617000000    -0.626000000     2.675000000
O     3.888000000    -1.910000000     2.364000000
C     4.363000000     0.426000000     2.067000000
C     5.460000000     0.194000000     1.056000000
H     6.275000000     0.920000000     1.014000000
C     4.932000000    -0.093000000    -0.328000000
C     4.829000000     0.999000000    -1.178000000
H     5.094000000     2.023000000    -0.932000000
H     6.048000000    -0.666000000     1.380000000
C     3.793000000     1.674000000     2.310000000
H     4.237000000     2.582000000     1.912000000
C     2.737000000     1.914000000     3.219000000
C     2.356000000     3.309000000     3.508000000
H     3.181000000     4.022000000     3.452000000
H     2.084000000     3.333000000     4.565000000
C     1.318000000     3.967000000     2.551000000
C     1.736000000     4.630000000     1.380000000
H     2.785000000     4.599000000     1.098000000
C     0.018000000     3.831000000     2.819000000
C    -0.933000000     4.334000000     1.914000000
H    -1.974000000     4.183000000     2.186000000
C    -0.559000000     4.917000000     0.711000000
O    -1.556000000     5.054000000    -0.169000000
C    -1.666000000     3.894000000    -1.032000000
C    -3.094000000     3.446000000    -1.261000000
C    -3.387000000     2.475000000    -2.244000000
H    -2.585000000     2.252000000    -2.944000000
C    -4.100000000     3.699000000    -0.288000000
H    -3.893000000     4.350000000     0.558000000
O    -1.013000000     4.188000000    -2.287000000
H    -1.310000000     2.998000000    -0.503000000
C     0.819000000     5.095000000     0.443000000
C     1.220000000     5.491000000    -0.984000000
H     2.165000000     6.025000000    -0.864000000
H     0.443000000     6.129000000    -1.410000000
C     1.433000000     4.340000000    -1.962000000
C     2.701000000     3.874000000    -2.399000000
H     3.629000000     4.367000000    -2.124000000
C     0.295000000     3.726000000    -2.487000000
C     0.375000000     2.604000000    -3.261000000
H    -0.495000000     2.095000000    -3.669000000
C     1.649000000     2.105000000    -3.690000000
O     1.724000000     1.009000000    -4.532000000
C     1.813000000    -0.280000000    -3.908000000
C     0.849000000    -1.350000000    -4.412000000
C    -0.217000000    -0.988000000    -5.196000000
H    -0.348000000     0.059000000    -5.457000000
C     0.863000000    -2.667000000    -3.966000000
H     1.729000000    -3.039000000    -3.424000000
O     3.215000000    -0.665000000    -3.938000000
H     1.588000000    -0.120000000    -2.843000000
C     2.844000000     2.708000000    -3.175000000
C     4.172000000     2.037000000    -3.462000000
H     5.019000000     2.689000000    -3.240000000
H     4.035000000     1.720000000    -4.498000000
C     4.327000000     0.842000000    -2.490000000
C     3.879000000    -0.442000000    -2.794000000
C     4.071000000    -1.560000000    -2.008000000
H     3.777000000    -2.567000000    -2.291000000
C     4.590000000    -1.345000000    -0.749000000
O     4.662000000    -2.421000000     0.165000000
C     3.553000000    -2.522000000     1.103000000
H     2.716000000    -2.033000000     0.582000000
C     3.058000000    -3.951000000     1.325000000
C     2.151000000    -4.206000000     2.293000000
H     1.998000000    -3.425000000     3.034000000
C     3.289000000    -4.972000000     0.411000000
H     4.058000000    -4.879000000    -0.352000000
C     2.614000000    -6.187000000     0.420000000
O     2.695000000    -7.070000000    -0.576000000
C     1.802000000    -6.428000000     1.518000000
H     1.243000000    -7.357000000     1.598000000
C     1.571000000    -5.456000000     2.462000000
O     0.719000000    -5.780000000     3.469000000
C     0.247000000    -4.799000000     4.347000000
C    -1.040000000    -4.284000000     4.156000000
H    -1.711000000    -4.657000000     3.387000000
C     1.037000000    -4.380000000     5.362000000
H     2.030000000    -4.822000000     5.368000000
C     0.641000000    -3.423000000     6.249000000
H     1.330000000    -2.996000000     6.973000000
C    -0.659000000    -2.984000000     6.184000000
H    -0.990000000    -2.250000000     6.914000000
C    -1.486000000    -3.338000000     5.075000000
O    -2.632000000    -2.685000000     4.884000000
C    -2.734000000    -1.309000000     4.794000000
C    -3.981000000    -0.672000000     5.011000000
H    -4.911000000    -1.190000000     5.232000000
C    -4.013000000     0.705000000     4.736000000
O    -5.134000000     1.360000000     4.840000000
C    -5.537000000     2.406000000     4.118000000
C    -5.435000000     2.422000000     2.760000000
H    -5.127000000     1.514000000     2.246000000
C    -6.059000000     3.484000000     4.805000000
H    -6.120000000     3.398000000     5.887000000
C    -6.584000000     4.593000000     4.130000000
H    -7.176000000     5.371000000     4.608000000
C    -6.606000000     4.486000000     2.744000000
H    -7.172000000     5.270000000     2.248000000
C    -6.033000000     3.457000000     2.031000000
O    -6.258000000     3.400000000     0.668000000
C    -5.245000000     3.038000000    -0.270000000
C    -5.582000000     2.139000000    -1.319000000
H    -6.550000000     1.651000000    -1.395000000
C    -4.603000000     1.808000000    -2.210000000
O    -4.865000000     0.773000000    -3.074000000
C    -4.345000000     0.689000000    -4.406000000
C    -3.513000000    -0.347000000    -4.743000000
H    -3.339000000    -1.110000000    -3.988000000
C    -4.518000000     1.786000000    -5.250000000
H    -4.999000000     2.680000000    -4.860000000
C    -3.782000000     1.780000000    -6.415000000
H    -3.828000000     2.665000000    -7.045000000
C    -2.979000000     0.733000000    -6.820000000
H    -2.562000000     0.724000000    -7.824000000
C    -2.954000000    -0.382000000    -5.986000000
O    -2.214000000    -1.453000000    -6.387000000
C    -1.216000000    -1.860000000    -5.554000000
C    -1.156000000    -3.172000000    -5.179000000
H    -1.853000000    -3.918000000    -5.551000000
C    -0.092000000    -3.609000000    -4.349000000
O    -0.120000000    -4.920000000    -3.914000000
C     1.065000000    -5.511000000    -3.501000000
C     2.069000000    -5.812000000    -4.430000000
H     1.841000000    -5.589000000    -5.469000000
C     3.268000000    -6.455000000    -4.069000000
H     4.045000000    -6.615000000    -4.812000000
C     3.528000000    -6.791000000    -2.744000000
H     4.484000000    -7.225000000    -2.460000000
C     2.444000000    -6.687000000    -1.849000000
C     1.231000000    -6.059000000    -2.250000000
H     0.445000000    -5.955000000    -1.506000000
C    -1.318000000    -2.005000000    -1.415000000
H    -2.024000000    -2.015000000    -2.242000000
C    -0.383000000    -0.927000000    -1.362000000
H    -0.254000000    -0.147000000    -2.108000000
C     0.299000000    -0.695000000    -0.179000000
C     1.223000000     0.532000000    -0.152000000
H     0.602000000     1.412000000    -0.331000000
H     1.774000000     0.615000000     0.787000000
H     2.019000000     0.502000000    -0.900000000
C     0.105000000    -1.545000000     0.899000000
H     0.546000000    -1.398000000     1.882000000
C    -0.771000000    -2.672000000     0.801000000
H    -0.966000000    -3.310000000     1.659000000
C    -1.540000000    -2.848000000    -0.354000000
C    -2.675000000    -3.882000000    -0.444000000
O    -3.090000000    -4.458000000     0.527000000
O    -3.187000000    -4.097000000    -1.547000000
O    -2.266000000    -6.558000000     2.085000000
H    -2.620000000    -5.829000000     1.576000000
H    -1.826000000    -7.111000000     1.439000000
O    -2.841000000    -7.909000000    -5.337000000
H    -3.058000000    -7.158000000    -4.785000000
H    -2.848000000    -8.656000000    -4.739000000
O    -5.074000000    -8.324000000    -2.788000000
H    -5.690000000    -7.843000000    -2.235000000
H    -4.221000000    -7.941000000    -2.586000000
O    -5.324000000    -7.907000000     0.692000000
H    -6.087000000    -8.451000000     0.495000000
H    -5.556000000    -7.040000000     0.360000000
O    -2.770000000     0.729000000     0.397000000
H    -2.175000000     0.188000000    -0.123000000
H    -3.622000000     0.302000000     0.307000000
O    -4.176000000    -8.582000000     3.255000000
H    -3.565000000    -7.988000000     2.820000000
H    -3.936000000    -9.450000000     2.932000000
O    -6.950000000    -3.404000000     3.270000000
H    -6.037000000    -3.168000000     3.105000000
H    -7.060000000    -3.291000000     4.214000000
O    -4.916000000    -0.762000000    -0.105000000
H    -5.565000000    -1.155000000     0.478000000
H    -5.028000000    -1.223000000    -0.936000000
O    -7.904000000    -5.340000000     0.771000000
H    -7.005000000    -5.288000000     0.447000000
H    -8.229000000    -4.441000000     0.721000000
O    -2.795000000    -6.888000000    -1.772000000
H    -2.018000000    -7.141000000    -1.273000000
H    -2.889000000    -5.950000000    -1.610000000
O    -8.305000000    -3.122000000    -1.406000000
H    -8.304000000    -2.584000000    -0.614000000
H    -7.408000000    -3.067000000    -1.734000000
O    -3.641000000    -6.343000000     5.176000000
H    -3.014000000    -6.988000000     4.848000000
H    -4.232000000    -6.187000000     4.439000000
O    -1.136000000    -8.149000000     0.000000000
H    -0.588000000    -8.496000000    -0.704000000
H    -1.563000000    -8.920000000     0.374000000
O    -3.652000000    -5.393000000    -3.989000000
H    -3.382000000    -4.794000000    -3.293000000
H    -4.609000000    -5.379000000    -3.959000000
O    -3.142000000   -10.073000000     0.513000000
H    -3.635000000    -9.260000000     0.407000000
H    -3.795000000   -10.765000000     0.409000000
O    -4.473000000    -2.699000000     2.086000000
H    -3.996000000    -3.413000000     1.664000000
H    -4.307000000    -1.938000000     1.529000000
O    -5.417000000    -2.644000000    -2.037000000
H    -5.690000000    -2.801000000    -2.940000000
H    -4.700000000    -3.262000000    -1.893000000
O    -6.432000000    -5.053000000    -3.340000000
H    -7.170000000    -5.385000000    -2.829000000
H    -6.802000000    -4.871000000    -4.204000000
O    -5.480000000    -5.410000000    -0.188000000
H    -4.642000000    -5.253000000     0.248000000
H    -5.349000000    -5.089000000    -1.080000000
