218
-1478.82737
C    -2.678000000     1.114000000     4.647000000
H    -2.921000000     2.124000000     4.328000000
C    -1.366000000     0.571000000     4.545000000
C    -1.233000000    -0.816000000     4.592000000
H    -0.314000000    -1.241000000     4.198000000
C    -0.235000000     1.420000000     4.026000000
O    -0.488000000     2.872000000     4.245000000
H    -0.303000000     1.147000000     2.962000000
O     1.057000000     1.039000000     4.564000000
C     2.194000000     1.030000000     3.791000000
C     2.792000000    -0.253000000     3.542000000
H     2.385000000    -1.110000000     4.073000000
C     3.894000000    -0.344000000     2.661000000
O     4.224000000    -1.599000000     2.276000000
C     4.458000000     0.787000000     2.140000000
C     5.598000000     0.741000000     1.114000000
H     6.179000000     1.664000000     1.063000000
C     5.049000000     0.473000000    -0.295000000
C     4.848000000     1.547000000    -1.159000000
H     5.123000000     2.509000000    -0.733000000
H     6.302000000    -0.050000000     1.379000000
C     3.842000000     2.070000000     2.393000000
H     4.151000000     2.922000000     1.793000000
C     2.747000000     2.199000000     3.293000000
C     2.238000000     3.532000000     3.748000000
H     3.022000000     4.285000000     3.646000000
H     1.995000000     3.564000000     4.812000000
C     1.107000000     3.991000000     2.817000000
C     1.314000000     4.641000000     1.624000000
H     2.338000000     4.870000000     1.339000000
C    -0.216000000     3.578000000     3.107000000
C    -1.328000000     3.942000000     2.395000000
H    -2.345000000     3.667000000     2.663000000
C    -1.027000000     4.307000000     1.061000000
O    -2.095000000     4.423000000     0.168000000
C    -2.151000000     3.478000000    -0.957000000
C    -3.597000000     2.991000000    -1.161000000
C    -3.880000000     2.121000000    -2.257000000
H    -3.166000000     2.084000000    -3.076000000
C    -4.498000000     3.122000000    -0.126000000
H    -4.278000000     3.680000000     0.780000000
O    -1.682000000     4.131000000    -2.188000000
H    -1.477000000     2.670000000    -0.636000000
C     0.254000000     4.788000000     0.727000000
C     0.538000000     5.466000000    -0.605000000
H     1.274000000     6.272000000    -0.565000000
H    -0.313000000     6.050000000    -0.963000000
C     0.717000000     4.436000000    -1.698000000
C     2.033000000     4.026000000    -1.964000000
H     2.890000000     4.434000000    -1.433000000
C    -0.333000000     3.818000000    -2.403000000
C    -0.033000000     2.773000000    -3.352000000
H    -0.836000000     2.319000000    -3.927000000
C     1.271000000     2.404000000    -3.580000000
O     1.363000000     1.368000000    -4.455000000
C     1.758000000     0.048000000    -3.912000000
C     1.015000000    -1.109000000    -4.624000000
C    -0.330000000    -1.047000000    -4.907000000
H    -0.870000000    -0.186000000    -4.521000000
C     1.776000000    -2.231000000    -5.055000000
H     2.855000000    -2.344000000    -5.001000000
O     3.212000000     0.026000000    -4.049000000
H     1.572000000     0.051000000    -2.828000000
C     2.333000000     3.026000000    -2.962000000
C     3.783000000     2.680000000    -3.179000000
H     4.323000000     3.550000000    -2.798000000
H     3.974000000     2.762000000    -4.252000000
C     4.190000000     1.433000000    -2.397000000
C     3.961000000     0.186000000    -2.882000000
C     4.323000000    -0.930000000    -2.054000000
H     4.118000000    -1.933000000    -2.418000000
C     4.793000000    -0.808000000    -0.776000000
O     4.775000000    -1.952000000    -0.042000000
C     3.742000000    -2.081000000     0.980000000
H     2.941000000    -1.399000000     0.661000000
C     3.129000000    -3.476000000     1.076000000
C     2.671000000    -4.046000000     2.266000000
H     2.945000000    -3.534000000     3.185000000
C     2.681000000    -4.099000000    -0.113000000
H     2.984000000    -3.725000000    -1.088000000
C     1.872000000    -5.228000000    -0.079000000
O     1.499000000    -5.824000000    -1.350000000
C     1.595000000    -5.826000000     1.168000000
H     1.004000000    -6.727000000     1.307000000
C     1.949000000    -5.207000000     2.312000000
O     1.551000000    -5.730000000     3.580000000
C     0.942000000    -5.011000000     4.550000000
C    -0.262000000    -4.316000000     4.311000000
H    -0.768000000    -4.567000000     3.382000000
C     1.557000000    -4.938000000     5.761000000
H     2.488000000    -5.466000000     5.950000000
C     0.978000000    -4.125000000     6.753000000
H     1.475000000    -4.031000000     7.715000000
C    -0.236000000    -3.459000000     6.493000000
H    -0.753000000    -2.826000000     7.209000000
C    -0.849000000    -3.566000000     5.293000000
O    -2.047000000    -2.976000000     5.064000000
C    -2.277000000    -1.605000000     5.005000000
C    -3.541000000    -1.085000000     5.155000000
H    -4.367000000    -1.742000000     5.417000000
C    -3.769000000     0.285000000     5.003000000
O    -5.039000000     0.736000000     5.080000000
C    -5.703000000     1.721000000     4.353000000
C    -5.750000000     1.633000000     2.988000000
H    -5.279000000     0.879000000     2.363000000
C    -6.274000000     2.787000000     4.980000000
H    -6.210000000     2.817000000     6.064000000
C    -6.945000000     3.764000000     4.217000000
H    -7.460000000     4.559000000     4.750000000
C    -7.070000000     3.679000000     2.848000000
H    -7.638000000     4.396000000     2.261000000
C    -6.409000000     2.623000000     2.197000000
O    -6.611000000     2.482000000     0.858000000
C    -5.685000000     2.411000000    -0.194000000
C    -6.102000000     1.821000000    -1.415000000
H    -7.075000000     1.348000000    -1.523000000
C    -5.163000000     1.618000000    -2.453000000
O    -5.593000000     1.054000000    -3.629000000
C    -4.730000000     0.771000000    -4.712000000
C    -4.021000000    -0.444000000    -4.698000000
H    -4.200000000    -1.189000000    -3.927000000
C    -4.550000000     1.687000000    -5.749000000
H    -5.064000000     2.642000000    -5.671000000
C    -3.599000000     1.368000000    -6.777000000
H    -3.359000000     2.047000000    -7.590000000
C    -2.995000000     0.119000000    -6.742000000
H    -2.321000000    -0.069000000    -7.575000000
C    -3.158000000    -0.786000000    -5.737000000
O    -2.427000000    -1.928000000    -5.607000000
C    -1.017000000    -2.087000000    -5.506000000
C    -0.315000000    -3.270000000    -5.823000000
H    -0.847000000    -4.136000000    -6.209000000
C     1.071000000    -3.288000000    -5.662000000
O     1.790000000    -4.466000000    -5.816000000
C     2.332000000    -5.239000000    -4.798000000
C     3.485000000    -5.909000000    -4.941000000
H     3.884000000    -5.958000000    -5.952000000
C     4.046000000    -6.556000000    -3.856000000
H     4.955000000    -7.138000000    -3.987000000
C     3.416000000    -6.512000000    -2.570000000
H     3.915000000    -6.923000000    -1.695000000
C     2.263000000    -5.867000000    -2.467000000
C     1.681000000    -5.286000000    -3.559000000
H     0.685000000    -4.876000000    -3.415000000
C    -1.567000000    -1.661000000    -1.668000000
H    -2.210000000    -1.725000000    -2.542000000
C    -0.714000000    -0.609000000    -1.366000000
H    -0.730000000     0.154000000    -2.140000000
C     0.192000000    -0.623000000    -0.283000000
C     1.049000000     0.668000000     0.070000000
H     0.712000000     1.501000000    -0.551000000
H     0.841000000     0.930000000     1.109000000
H     2.091000000     0.498000000    -0.211000000
C     0.129000000    -1.692000000     0.611000000
H     0.709000000    -1.744000000     1.529000000
C    -0.820000000    -2.753000000     0.372000000
H    -0.878000000    -3.512000000     1.148000000
C    -1.625000000    -2.768000000    -0.762000000
C    -2.710000000    -3.781000000    -0.986000000
O    -2.902000000    -4.701000000    -0.168000000
O    -3.530000000    -3.656000000    -1.878000000
O    -2.013000000    -6.710000000     1.257000000
H    -2.431000000    -5.943000000     0.865000000
H    -1.365000000    -6.987000000     0.609000000
O    -1.052000000    -6.870000000    -4.778000000
H    -1.125000000    -7.496000000    -4.058000000
H    -1.518000000    -6.094000000    -4.469000000
O    -6.654000000    -2.812000000    -4.810000000
H    -6.639000000    -2.246000000    -5.582000000
H    -6.846000000    -2.221000000    -4.083000000
O    -4.193000000    -8.188000000    -3.961000000
H    -3.632000000    -7.542000000    -3.533000000
H    -4.945000000    -8.279000000    -3.376000000
O    -5.108000000    -9.108000000    -0.685000000
H    -5.746000000    -9.056000000    -1.396000000
H    -4.458000000    -8.437000000    -0.897000000
O    -2.469000000     0.473000000     1.244000000
H    -1.779000000     0.339000000     0.594000000
H    -3.030000000    -0.298000000     1.159000000
O    -7.607000000    -3.872000000     2.452000000
H    -6.777000000    -4.289000000     2.220000000
H    -8.135000000    -4.580000000     2.821000000
O    -4.586000000    -1.471000000     1.057000000
H    -4.539000000    -2.423000000     1.145000000
H    -5.515000000    -1.266000000     1.164000000
O    -8.500000000    -4.675000000    -0.401000000
H    -7.545000000    -4.698000000    -0.347000000
H    -8.720000000    -3.745000000    -0.349000000
O    -5.732000000    -6.901000000     1.655000000
H    -5.484000000    -6.121000000     1.159000000
H    -5.385000000    -7.631000000     1.142000000
O    -3.479000000    -7.108000000    -1.580000000
H    -2.545000000    -7.311000000    -1.535000000
H    -3.539000000    -6.194000000    -1.299000000
O    -7.850000000    -1.871000000    -0.835000000
H    -7.818000000    -1.626000000     0.090000000
H    -6.931000000    -1.963000000    -1.089000000
O    -4.653000000    -6.152000000     4.215000000
H    -4.482000000    -6.976000000     4.671000000
H    -4.935000000    -6.416000000     3.339000000
O    -0.681000000    -7.409000000    -1.249000000
H    -0.054000000    -8.124000000    -1.361000000
H    -0.142000000    -6.619000000    -1.227000000
O    -2.681000000    -4.888000000    -4.129000000
H    -3.047000000    -4.637000000    -3.281000000
H    -3.013000000    -4.228000000    -4.738000000
O    -4.799000000    -4.191000000     1.872000000
H    -4.162000000    -4.463000000     1.212000000
H    -4.297000000    -4.149000000     2.686000000
O    -5.283000000    -1.842000000    -1.605000000
H    -4.807000000    -1.526000000    -0.837000000
H    -4.716000000    -2.518000000    -1.976000000
O    -6.582000000    -5.979000000    -3.435000000
H    -7.529000000    -5.887000000    -3.335000000
H    -6.348000000    -5.331000000    -4.100000000
O    -5.747000000    -5.140000000    -0.824000000
H    -4.894000000    -4.805000000    -1.099000000
H    -6.065000000    -5.634000000    -1.580000000
