218
-1456.62783
C    -3.217000000     0.820000000     4.106000000
H    -3.673000000     1.741000000     3.751000000
C    -1.833000000     0.677000000     4.136000000
C    -1.221000000    -0.371000000     4.780000000
H    -0.136000000    -0.425000000     4.809000000
C    -0.940000000     1.830000000     3.612000000
O    -1.658000000     3.077000000     3.592000000
H    -0.572000000     1.566000000     2.609000000
O     0.218000000     2.041000000     4.367000000
C     1.433000000     2.199000000     3.762000000
C     2.265000000     1.114000000     3.610000000
H     1.980000000     0.238000000     4.188000000
C     3.353000000     1.204000000     2.797000000
O     4.052000000     0.043000000     2.798000000
C     3.708000000     2.314000000     2.104000000
C     4.944000000     2.323000000     1.249000000
H     5.211000000     3.376000000     1.140000000
C     4.525000000     1.727000000    -0.131000000
C     4.172000000     2.599000000    -1.149000000
H     4.089000000     3.680000000    -1.072000000
H     5.761000000     1.832000000     1.782000000
C     2.923000000     3.436000000     2.307000000
H     3.306000000     4.351000000     1.862000000
C     1.768000000     3.356000000     3.093000000
C     0.846000000     4.540000000     3.194000000
H     1.350000000     5.497000000     3.042000000
H     0.403000000     4.594000000     4.190000000
C    -0.299000000     4.433000000     2.187000000
C    -0.115000000     4.961000000     0.935000000
H     0.844000000     5.459000000     0.818000000
C    -1.501000000     3.801000000     2.449000000
C    -2.454000000     3.646000000     1.437000000
H    -3.330000000     3.031000000     1.625000000
C    -2.239000000     4.052000000     0.174000000
O    -3.123000000     3.762000000    -0.797000000
C    -2.875000000     2.713000000    -1.712000000
C    -3.998000000     1.680000000    -2.021000000
C    -3.966000000     0.948000000    -3.219000000
H    -3.228000000     1.127000000    -3.997000000
C    -4.918000000     1.365000000    -1.036000000
H    -4.855000000     1.910000000    -0.097000000
O    -2.383000000     3.349000000    -2.951000000
H    -2.021000000     2.111000000    -1.366000000
C    -0.994000000     4.711000000    -0.136000000
C    -0.637000000     5.266000000    -1.493000000
H     0.091000000     6.071000000    -1.375000000
H    -1.501000000     5.721000000    -1.981000000
C    -0.179000000     4.232000000    -2.491000000
C     1.224000000     4.009000000    -2.620000000
H     1.950000000     4.684000000    -2.173000000
C    -1.014000000     3.345000000    -3.174000000
C    -0.470000000     2.290000000    -3.869000000
H    -1.165000000     1.574000000    -4.301000000
C     0.896000000     2.189000000    -4.147000000
O     1.437000000     1.100000000    -4.723000000
C     1.717000000     0.070000000    -3.736000000
C     1.230000000    -1.364000000    -4.171000000
C     0.416000000    -1.496000000    -5.255000000
H     0.116000000    -0.588000000    -5.772000000
C     1.609000000    -2.518000000    -3.483000000
H     2.290000000    -2.259000000    -2.676000000
O     3.145000000     0.001000000    -3.595000000
H     1.236000000     0.339000000    -2.784000000
C     1.750000000     3.023000000    -3.452000000
C     3.250000000     2.908000000    -3.567000000
H     3.756000000     3.874000000    -3.620000000
H     3.427000000     2.419000000    -4.527000000
C     3.816000000     2.023000000    -2.420000000
C     3.713000000     0.635000000    -2.496000000
C     4.208000000    -0.212000000    -1.503000000
H     4.122000000    -1.284000000    -1.659000000
C     4.544000000     0.340000000    -0.311000000
O     4.898000000    -0.570000000     0.608000000
C     3.954000000    -0.879000000     1.674000000
H     2.940000000    -0.731000000     1.273000000
C     3.978000000    -2.320000000     2.050000000
C     3.490000000    -2.670000000     3.310000000
H     3.229000000    -1.884000000     4.014000000
C     4.320000000    -3.326000000     1.109000000
H     4.632000000    -3.045000000     0.106000000
C     4.230000000    -4.659000000     1.438000000
O     4.415000000    -5.685000000     0.492000000
C     3.685000000    -5.002000000     2.688000000
H     3.535000000    -6.043000000     2.962000000
C     3.372000000    -4.015000000     3.643000000
O     2.567000000    -4.391000000     4.794000000
C     1.954000000    -3.538000000     5.613000000
C     0.567000000    -3.438000000     5.603000000
H     0.016000000    -4.153000000     4.998000000
C     2.638000000    -2.987000000     6.782000000
H     3.687000000    -3.239000000     6.917000000
C     1.945000000    -2.185000000     7.639000000
H     2.374000000    -1.767000000     8.546000000
C     0.584000000    -1.964000000     7.471000000
H    -0.004000000    -1.375000000     8.170000000
C    -0.050000000    -2.533000000     6.399000000
O    -1.433000000    -2.364000000     6.216000000
C    -2.005000000    -1.351000000     5.437000000
C    -3.411000000    -1.246000000     5.353000000
H    -4.040000000    -1.903000000     5.948000000
C    -3.989000000    -0.169000000     4.679000000
O    -5.355000000    -0.155000000     4.624000000
C    -6.053000000     0.307000000     3.550000000
C    -5.978000000    -0.286000000     2.256000000
H    -5.502000000    -1.262000000     2.208000000
C    -6.701000000     1.494000000     3.731000000
H    -6.598000000     1.967000000     4.705000000
C    -7.258000000     2.167000000     2.645000000
H    -7.689000000     3.164000000     2.690000000
C    -7.140000000     1.607000000     1.368000000
H    -7.738000000     2.098000000     0.604000000
C    -6.524000000     0.389000000     1.161000000
O    -6.439000000    -0.193000000    -0.067000000
C    -5.768000000     0.289000000    -1.156000000
C    -5.787000000    -0.487000000    -2.296000000
H    -6.472000000    -1.326000000    -2.394000000
C    -4.953000000    -0.097000000    -3.403000000
O    -5.177000000    -0.731000000    -4.614000000
C    -4.118000000    -0.743000000    -5.539000000
C    -3.068000000    -1.608000000    -5.390000000
H    -2.782000000    -2.018000000    -4.425000000
C    -4.390000000    -0.104000000    -6.732000000
H    -5.153000000     0.661000000    -6.850000000
C    -3.572000000    -0.346000000    -7.818000000
H    -3.717000000     0.183000000    -8.757000000
C    -2.537000000    -1.288000000    -7.749000000
H    -1.928000000    -1.483000000    -8.628000000
C    -2.271000000    -1.866000000    -6.492000000
O    -1.260000000    -2.747000000    -6.380000000
C    -0.246000000    -2.704000000    -5.413000000
C     0.169000000    -3.880000000    -4.810000000
H    -0.166000000    -4.867000000    -5.118000000
C     1.070000000    -3.772000000    -3.776000000
O     1.383000000    -4.954000000    -3.096000000
C     2.694000000    -5.196000000    -2.711000000
C     3.736000000    -5.490000000    -3.618000000
H     3.387000000    -5.475000000    -4.648000000
C     4.951000000    -6.011000000    -3.136000000
H     5.716000000    -6.282000000    -3.859000000
C     5.196000000    -5.986000000    -1.764000000
H     6.128000000    -6.281000000    -1.289000000
C     4.247000000    -5.575000000    -0.877000000
C     2.938000000    -5.277000000    -1.373000000
H     2.086000000    -5.184000000    -0.705000000
C    -1.151000000    -1.701000000    -1.576000000
H    -1.717000000    -2.022000000    -2.447000000
C    -0.707000000    -0.410000000    -1.464000000
H    -1.082000000     0.342000000    -2.154000000
C     0.019000000    -0.046000000    -0.335000000
C     0.326000000     1.397000000     0.015000000
H     0.939000000     1.881000000    -0.749000000
H    -0.550000000     1.917000000     0.410000000
H     1.004000000     1.379000000     0.871000000
C     0.419000000    -1.012000000     0.576000000
H     0.821000000    -0.666000000     1.525000000
C    -0.007000000    -2.306000000     0.509000000
H     0.101000000    -3.017000000     1.324000000
C    -0.823000000    -2.663000000    -0.601000000
C    -1.506000000    -4.013000000    -0.536000000
O    -1.179000000    -4.924000000     0.172000000
O    -2.410000000    -4.284000000    -1.274000000
O    -1.194000000    -7.039000000    -1.588000000
H    -1.931000000    -6.799000000    -2.149000000
H    -1.170000000    -6.354000000    -0.919000000
O    -0.412000000    -9.435000000    -2.273000000
H    -0.988000000   -10.005000000    -1.764000000
H    -0.718000000    -8.549000000    -2.079000000
O    -2.786000000    -1.335000000     1.135000000
H    -2.553000000    -0.991000000     1.998000000
H    -1.947000000    -1.461000000     0.692000000
O    -6.362000000    -6.249000000     2.594000000
H    -6.235000000    -5.474000000     2.047000000
H    -5.512000000    -6.390000000     3.012000000
O    -7.000000000    -4.116000000     0.419000000
H    -7.625000000    -4.094000000    -0.306000000
H    -6.168000000    -3.850000000     0.026000000
O    -6.823000000    -6.447000000    -2.143000000
H    -6.248000000    -6.867000000    -1.503000000
H    -7.577000000    -7.032000000    -2.209000000
O    -5.340000000    -4.289000000    -3.345000000
H    -4.908000000    -3.904000000    -2.583000000
H    -6.003000000    -4.872000000    -2.976000000
O     0.874000000    -9.292000000     1.836000000
H     0.715000000    -8.381000000     2.086000000
H     0.943000000    -9.270000000     0.882000000
O    -3.936000000    -6.449000000     3.850000000
H    -4.087000000    -7.344000000     4.155000000
H    -3.393000000    -6.052000000     4.531000000
O    -1.706000000    -4.356000000     2.919000000
H    -1.705000000    -4.925000000     2.149000000
H    -1.543000000    -4.947000000     3.654000000
O    -4.358000000    -3.583000000     2.825000000
H    -3.743000000    -4.247000000     3.139000000
H    -3.810000000    -2.954000000     2.355000000
O    -2.863000000    -9.672000000    -1.035000000
H    -3.190000000    -9.918000000    -0.169000000
H    -2.748000000    -8.723000000    -0.987000000
O    -5.402000000    -4.683000000    -5.916000000
H    -6.237000000    -4.557000000    -6.367000000
H    -5.516000000    -4.244000000    -5.073000000
O    -5.598000000    -8.275000000     0.350000000
H    -4.837000000    -7.772000000     0.058000000
H    -5.994000000    -7.734000000     1.033000000
O     1.814000000    -8.059000000    -0.620000000
H     1.759000000    -7.391000000     0.064000000
H     2.633000000    -7.867000000    -1.077000000
O    -3.724000000    -6.474000000    -3.367000000
H    -3.095000000    -5.823000000    -3.056000000
H    -4.555000000    -6.001000000    -3.415000000
O     0.767000000    -6.294000000     1.719000000
H     1.015000000    -5.633000000     2.365000000
H     0.057000000    -5.888000000     1.222000000
O    -4.588000000    -3.154000000    -0.911000000
H    -4.415000000    -2.253000000    -0.638000000
H    -3.721000000    -3.524000000    -1.077000000
O    -3.530000000    -6.539000000     0.089000000
H    -3.502000000    -5.693000000    -0.359000000
H    -2.888000000    -6.456000000     0.795000000
