218
-1458.54375
C    -3.335000000     1.335000000     3.550000000
H    -3.861000000     1.975000000     2.846000000
C    -1.964000000     1.387000000     3.846000000
C    -1.429000000     0.475000000     4.732000000
H    -0.344000000     0.524000000     4.792000000
C    -1.059000000     2.338000000     3.092000000
O    -1.823000000     3.386000000     2.573000000
H    -0.593000000     1.867000000     2.214000000
O    -0.072000000     2.821000000     3.924000000
C     1.168000000     2.842000000     3.347000000
C     2.020000000     1.786000000     3.611000000
H     1.636000000     1.016000000     4.277000000
C     3.165000000     1.600000000     2.849000000
O     3.896000000     0.478000000     3.086000000
C     3.510000000     2.566000000     1.897000000
C     4.836000000     2.456000000     1.112000000
H     5.337000000     3.407000000     0.916000000
C     4.496000000     1.728000000    -0.152000000
C     4.151000000     2.353000000    -1.386000000
H     4.058000000     3.436000000    -1.379000000
H     5.511000000     1.870000000     1.737000000
C     2.713000000     3.687000000     1.731000000
H     2.974000000     4.453000000     1.005000000
C     1.521000000     3.815000000     2.410000000
C     0.597000000     5.076000000     2.056000000
H     1.163000000     5.917000000     1.648000000
H     0.141000000     5.582000000     2.909000000
C    -0.437000000     4.672000000     0.986000000
C    -0.192000000     5.000000000    -0.254000000
H     0.687000000     5.562000000    -0.561000000
C    -1.567000000     3.825000000     1.290000000
C    -2.523000000     3.436000000     0.322000000
H    -3.410000000     2.869000000     0.588000000
C    -2.244000000     3.842000000    -0.984000000
O    -3.087000000     3.501000000    -1.978000000
C    -2.768000000     2.243000000    -2.613000000
C    -3.969000000     1.298000000    -2.613000000
C    -4.106000000     0.295000000    -3.620000000
H    -3.354000000     0.199000000    -4.399000000
C    -4.883000000     1.276000000    -1.575000000
H    -4.770000000     1.998000000    -0.771000000
O    -2.239000000     2.466000000    -3.953000000
H    -1.971000000     1.755000000    -2.033000000
C    -1.082000000     4.537000000    -1.300000000
C    -0.723000000     4.797000000    -2.763000000
H    -0.058000000     5.660000000    -2.827000000
H    -1.532000000     5.207000000    -3.370000000
C    -0.146000000     3.540000000    -3.462000000
C     1.214000000     3.435000000    -3.484000000
H     1.854000000     4.195000000    -3.043000000
C    -0.905000000     2.528000000    -4.063000000
C    -0.299000000     1.358000000    -4.537000000
H    -0.971000000     0.558000000    -4.838000000
C     1.073000000     1.240000000    -4.482000000
O     1.589000000     0.023000000    -4.782000000
C     1.922000000    -0.791000000    -3.638000000
C     1.562000000    -2.262000000    -3.818000000
C     0.303000000    -2.609000000    -4.329000000
H    -0.431000000    -1.863000000    -4.622000000
C     2.431000000    -3.245000000    -3.382000000
H     3.371000000    -2.844000000    -3.012000000
O     3.320000000    -0.647000000    -3.422000000
H     1.296000000    -0.466000000    -2.794000000
C     1.794000000     2.297000000    -3.969000000
C     3.329000000     2.209000000    -3.836000000
H     3.751000000     3.213000000    -3.912000000
H     3.725000000     1.596000000    -4.648000000
C     3.784000000     1.551000000    -2.505000000
C     3.807000000     0.140000000    -2.408000000
C     4.238000000    -0.510000000    -1.267000000
H     4.225000000    -1.591000000    -1.156000000
C     4.529000000     0.295000000    -0.149000000
O     4.754000000    -0.383000000     1.033000000
C     3.721000000    -0.554000000     1.986000000
H     2.702000000    -0.523000000     1.573000000
C     3.648000000    -1.922000000     2.661000000
C     3.289000000    -2.055000000     4.009000000
H     3.161000000    -1.168000000     4.624000000
C     3.783000000    -3.052000000     1.894000000
H     3.954000000    -2.978000000     0.824000000
C     3.555000000    -4.317000000     2.404000000
O     3.729000000    -5.423000000     1.657000000
C     3.230000000    -4.469000000     3.773000000
H     3.046000000    -5.445000000     4.215000000
C     3.011000000    -3.302000000     4.553000000
O     2.539000000    -3.416000000     5.819000000
C     1.791000000    -2.517000000     6.406000000
C     0.535000000    -2.216000000     5.881000000
H     0.059000000    -2.755000000     5.066000000
C     2.410000000    -1.646000000     7.342000000
H     3.476000000    -1.786000000     7.497000000
C     1.630000000    -0.723000000     7.969000000
H     2.104000000    -0.095000000     8.719000000
C     0.310000000    -0.655000000     7.740000000
H    -0.226000000     0.137000000     8.257000000
C    -0.301000000    -1.352000000     6.654000000
O    -1.661000000    -1.355000000     6.322000000
C    -2.236000000    -0.394000000     5.444000000
C    -3.520000000    -0.458000000     5.124000000
H    -4.035000000    -1.314000000     5.553000000
C    -4.065000000     0.435000000     4.184000000
O    -5.407000000     0.159000000     3.853000000
C    -6.051000000     0.874000000     2.933000000
C    -6.180000000     0.425000000     1.634000000
H    -5.696000000    -0.509000000     1.358000000
C    -6.559000000     2.104000000     3.246000000
H    -6.279000000     2.533000000     4.204000000
C    -7.168000000     2.926000000     2.273000000
H    -7.658000000     3.834000000     2.614000000
C    -7.305000000     2.514000000     0.964000000
H    -7.864000000     3.068000000     0.214000000
C    -6.863000000     1.220000000     0.618000000
O    -7.055000000     0.651000000    -0.676000000
C    -6.044000000     0.505000000    -1.651000000
C    -6.236000000    -0.416000000    -2.691000000
H    -7.160000000    -0.987000000    -2.731000000
C    -5.161000000    -0.521000000    -3.639000000
O    -5.273000000    -1.457000000    -4.630000000
C    -4.265000000    -2.099000000    -5.245000000
C    -3.431000000    -2.910000000    -4.501000000
H    -3.786000000    -3.162000000    -3.505000000
C    -3.967000000    -1.880000000    -6.597000000
H    -4.626000000    -1.204000000    -7.136000000
C    -2.850000000    -2.449000000    -7.227000000
H    -2.625000000    -2.257000000    -8.273000000
C    -2.104000000    -3.330000000    -6.474000000
H    -1.174000000    -3.742000000    -6.856000000
C    -2.392000000    -3.601000000    -5.178000000
O    -1.449000000    -4.298000000    -4.482000000
C    -0.157000000    -3.922000000    -4.216000000
C     0.642000000    -4.868000000    -3.685000000
H     0.318000000    -5.877000000    -3.447000000
C     1.943000000    -4.568000000    -3.275000000
O     2.712000000    -5.599000000    -2.869000000
C     3.632000000    -5.440000000    -1.898000000
C     4.948000000    -5.116000000    -2.205000000
H     5.195000000    -5.005000000    -3.257000000
C     5.913000000    -4.842000000    -1.169000000
H     6.903000000    -4.455000000    -1.395000000
C     5.565000000    -5.029000000     0.168000000
H     6.261000000    -4.705000000     0.937000000
C     4.278000000    -5.426000000     0.408000000
C     3.287000000    -5.558000000    -0.580000000
H     2.258000000    -5.803000000    -0.330000000
C    -0.111000000    -3.737000000    -0.278000000
H    -0.122000000    -4.465000000    -1.086000000
C    -0.194000000    -2.372000000    -0.545000000
H    -0.414000000    -2.062000000    -1.564000000
C    -0.070000000    -1.377000000     0.473000000
C    -0.124000000     0.071000000     0.036000000
H    -1.139000000     0.439000000     0.196000000
H     0.667000000     0.648000000     0.520000000
H     0.015000000     0.208000000    -1.039000000
C     0.150000000    -1.847000000     1.819000000
H     0.365000000    -1.211000000     2.674000000
C     0.223000000    -3.205000000     2.035000000
H     0.498000000    -3.556000000     3.027000000
C     0.001000000    -4.150000000     1.025000000
C     0.092000000    -5.671000000     1.345000000
O    -0.023000000    -6.095000000     2.516000000
O    -0.036000000    -6.483000000     0.440000000
O     1.004000000    -8.569000000    -3.172000000
H     1.508000000    -7.874000000    -2.749000000
H     0.135000000    -8.510000000    -2.774000000
O     1.840000000    -8.349000000    -0.133000000
H     1.199000000    -7.679000000     0.102000000
H     2.138000000    -8.700000000     0.706000000
O    -3.299000000    -3.494000000     4.275000000
H    -2.561000000    -2.905000000     4.117000000
H    -2.978000000    -4.356000000     4.012000000
O     1.240000000   -10.656000000     1.680000000
H     0.931000000   -10.545000000     2.579000000
H     2.148000000   -10.945000000     1.773000000
O    -4.880000000    -8.653000000     0.186000000
H    -4.136000000    -8.054000000     0.246000000
H    -4.793000000    -9.057000000    -0.677000000
O     3.607000000    -8.166000000     2.351000000
H     2.834000000    -8.091000000     2.911000000
H     3.593000000    -7.371000000     1.817000000
O    -0.662000000    -8.835000000     6.275000000
H    -0.708000000    -7.879000000     6.267000000
H    -1.561000000    -9.116000000     6.444000000
O    -5.480000000    -4.785000000     1.909000000
H    -4.725000000    -5.347000000     2.081000000
H    -5.973000000    -4.789000000     2.730000000
O    -2.957000000    -6.188000000     3.415000000
H    -2.013000000    -6.073000000     3.306000000
H    -3.040000000    -6.960000000     3.975000000
O    -0.062000000   -10.454000000     4.031000000
H    -0.439000000    -9.924000000     3.329000000
H     0.007000000    -9.854000000     4.773000000
O    -0.045000000   -11.373000000    -0.593000000
H     0.450000000   -11.108000000     0.182000000
H    -0.859000000   -11.739000000    -0.244000000
O    -1.305000000    -6.092000000     6.481000000
H    -1.752000000    -5.264000000     6.655000000
H    -0.377000000    -5.893000000     6.601000000
O    -3.040000000    -6.529000000    -0.136000000
H    -2.176000000    -6.538000000     0.277000000
H    -3.283000000    -5.604000000    -0.163000000
O     1.347000000    -5.685000000     6.472000000
H     1.912000000    -6.192000000     7.054000000
H     1.880000000    -4.933000000     6.216000000
O     3.126000000   -10.398000000    -1.463000000
H     2.488000000   -10.983000000    -1.054000000
H     2.853000000    -9.521000000    -1.194000000
O    -1.290000000    -8.061000000    -1.536000000
H    -2.036000000    -7.478000000    -1.394000000
H    -0.652000000    -7.799000000    -0.873000000
O     1.529000000    -7.827000000     4.027000000
H     1.157000000    -7.597000000     4.879000000
H     1.116000000    -7.219000000     3.414000000
O    -4.013000000    -4.116000000    -0.462000000
H    -4.625000000    -3.970000000     0.258000000
H    -3.363000000    -3.419000000    -0.369000000
O    -0.964000000    -8.666000000     2.228000000
H    -0.694000000    -7.770000000     2.428000000
H    -0.777000000    -8.770000000     1.295000000
