218
-1442.64795
C    -2.312000000     2.247000000     4.397000000
H    -2.698000000     3.169000000     3.968000000
C    -0.976000000     1.897000000     4.182000000
C    -0.541000000     0.703000000     4.692000000
H     0.473000000     0.391000000     4.455000000
C    -0.136000000     2.670000000     3.175000000
O    -0.687000000     3.915000000     2.813000000
H    -0.057000000     2.092000000     2.243000000
O     1.143000000     3.068000000     3.781000000
C     2.292000000     2.940000000     2.963000000
C     3.066000000     1.776000000     3.149000000
H     2.791000000     1.074000000     3.932000000
C     4.013000000     1.460000000     2.187000000
O     4.582000000     0.167000000     2.312000000
C     4.269000000     2.286000000     1.200000000
C     5.171000000     1.798000000     0.084000000
H     5.609000000     2.719000000    -0.307000000
C     4.547000000     0.978000000    -1.050000000
C     4.143000000     1.592000000    -2.236000000
H     4.210000000     2.664000000    -2.405000000
H     6.065000000     1.315000000     0.484000000
C     3.596000000     3.529000000     1.034000000
H     3.815000000     4.095000000     0.132000000
C     2.556000000     3.797000000     1.925000000
C     1.720000000     5.091000000     1.699000000
H     2.213000000     5.803000000     1.034000000
H     1.565000000     5.448000000     2.719000000
C     0.488000000     4.744000000     0.915000000
C     0.472000000     4.843000000    -0.454000000
H     1.372000000     5.247000000    -0.910000000
C    -0.661000000     4.226000000     1.566000000
C    -1.837000000     3.923000000     0.870000000
H    -2.775000000     3.574000000     1.294000000
C    -1.850000000     4.205000000    -0.494000000
O    -2.872000000     3.738000000    -1.208000000
C    -2.888000000     2.403000000    -1.857000000
C    -4.063000000     1.551000000    -1.528000000
C    -4.370000000     0.497000000    -2.341000000
H    -3.688000000     0.241000000    -3.148000000
C    -4.831000000     1.757000000    -0.418000000
H    -4.553000000     2.590000000     0.223000000
O    -2.665000000     2.428000000    -3.261000000
H    -2.035000000     1.787000000    -1.536000000
C    -0.655000000     4.545000000    -1.189000000
C    -0.735000000     4.740000000    -2.747000000
H     0.042000000     5.466000000    -2.995000000
H    -1.714000000     5.151000000    -3.002000000
C    -0.405000000     3.439000000    -3.462000000
C     0.935000000     3.222000000    -3.785000000
H     1.650000000     4.037000000    -3.700000000
C    -1.308000000     2.392000000    -3.580000000
C    -0.918000000     1.181000000    -4.124000000
H    -1.623000000     0.382000000    -4.340000000
C     0.466000000     0.898000000    -4.365000000
O     0.879000000    -0.349000000    -4.818000000
C     1.281000000    -1.248000000    -3.839000000
C     0.589000000    -2.597000000    -3.974000000
C    -0.631000000    -2.719000000    -4.676000000
H    -1.121000000    -1.803000000    -4.998000000
C     1.181000000    -3.770000000    -3.496000000
H     2.105000000    -3.704000000    -2.926000000
O     2.676000000    -1.229000000    -3.907000000
H     0.923000000    -0.899000000    -2.859000000
C     1.375000000     1.948000000    -4.226000000
C     2.834000000     1.661000000    -4.375000000
H     3.364000000     2.605000000    -4.513000000
H     3.102000000     1.086000000    -5.264000000
C     3.366000000     0.941000000    -3.201000000
C     3.404000000    -0.458000000    -3.010000000
C     3.978000000    -1.183000000    -1.897000000
H     4.003000000    -2.265000000    -1.798000000
C     4.564000000    -0.434000000    -0.913000000
O     4.959000000    -1.016000000     0.318000000
C     4.036000000    -0.902000000     1.437000000
H     3.062000000    -0.638000000     1.000000000
C     3.893000000    -2.281000000     2.086000000
C     3.798000000    -2.388000000     3.452000000
H     3.672000000    -1.515000000     4.088000000
C     3.661000000    -3.393000000     1.311000000
H     3.693000000    -3.330000000     0.226000000
C     3.350000000    -4.648000000     1.810000000
O     3.208000000    -5.739000000     0.975000000
C     3.379000000    -4.770000000     3.200000000
H     3.197000000    -5.703000000     3.726000000
C     3.511000000    -3.648000000     4.050000000
O     3.103000000    -3.771000000     5.352000000
C     2.298000000    -2.858000000     6.062000000
C     1.053000000    -2.551000000     5.610000000
H     0.627000000    -2.996000000     4.715000000
C     2.766000000    -2.336000000     7.249000000
H     3.766000000    -2.464000000     7.657000000
C     2.017000000    -1.381000000     7.915000000
H     2.404000000    -0.860000000     8.787000000
C     0.887000000    -0.933000000     7.394000000
H     0.486000000     0.029000000     7.702000000
C     0.349000000    -1.588000000     6.345000000
O    -0.989000000    -1.258000000     5.956000000
C    -1.422000000    -0.159000000     5.385000000
C    -2.753000000     0.099000000     5.529000000
H    -3.446000000    -0.682000000     5.833000000
C    -3.217000000     1.322000000     5.008000000
O    -4.542000000     1.594000000     5.138000000
C    -5.200000000     2.162000000     4.067000000
C    -5.589000000     1.412000000     3.048000000
H    -5.253000000     0.379000000     3.000000000
C    -5.583000000     3.490000000     4.146000000
H    -5.278000000     4.017000000     5.047000000
C    -6.361000000     4.051000000     3.187000000
H    -6.735000000     5.055000000     3.369000000
C    -6.735000000     3.299000000     2.066000000
H    -7.269000000     3.725000000     1.221000000
C    -6.359000000     1.928000000     2.031000000
O    -6.738000000     1.217000000     0.841000000
C    -5.888000000     0.906000000    -0.216000000
C    -6.180000000    -0.163000000    -1.021000000
H    -7.036000000    -0.788000000    -0.779000000
C    -5.440000000    -0.380000000    -2.109000000
O    -5.684000000    -1.574000000    -2.768000000
C    -5.048000000    -1.789000000    -4.021000000
C    -4.045000000    -2.794000000    -4.182000000
H    -3.882000000    -3.518000000    -3.389000000
C    -5.253000000    -0.902000000    -5.098000000
H    -5.918000000    -0.047000000    -5.009000000
C    -4.493000000    -1.045000000    -6.302000000
H    -4.546000000    -0.185000000    -6.965000000
C    -3.480000000    -2.001000000    -6.455000000
H    -2.826000000    -2.085000000    -7.319000000
C    -3.331000000    -2.928000000    -5.403000000
O    -2.485000000    -4.020000000    -5.439000000
C    -1.314000000    -3.915000000    -4.746000000
C    -0.761000000    -5.044000000    -4.245000000
H    -1.142000000    -6.036000000    -4.473000000
C     0.476000000    -4.979000000    -3.545000000
O     1.127000000    -6.136000000    -3.170000000
C     2.219000000    -6.038000000    -2.435000000
C     3.406000000    -5.904000000    -3.177000000
H     3.355000000    -6.080000000    -4.249000000
C     4.610000000    -5.596000000    -2.497000000
H     5.524000000    -5.493000000    -3.076000000
C     4.610000000    -5.594000000    -1.103000000
H     5.510000000    -5.222000000    -0.621000000
C     3.368000000    -5.872000000    -0.368000000
C     2.213000000    -6.088000000    -1.029000000
H     1.292000000    -6.132000000    -0.453000000
C    -2.781000000    -1.006000000     0.618000000
H    -3.763000000    -0.692000000     0.963000000
C    -1.781000000    -0.046000000     0.552000000
H    -2.060000000     0.939000000     0.917000000
C    -0.491000000    -0.375000000     0.096000000
C     0.639000000     0.636000000    -0.140000000
H     1.250000000     0.390000000    -1.011000000
H     0.177000000     1.615000000    -0.285000000
H     1.375000000     0.686000000     0.665000000
C    -0.302000000    -1.657000000    -0.269000000
H     0.733000000    -1.937000000    -0.447000000
C    -1.282000000    -2.671000000    -0.182000000
H    -1.068000000    -3.669000000    -0.556000000
C    -2.585000000    -2.347000000     0.239000000
C    -3.665000000    -3.361000000    -0.003000000
O    -3.374000000    -4.400000000    -0.565000000
O    -4.715000000    -3.293000000     0.581000000
O    -8.695000000    -0.389000000     2.335000000
H    -7.782000000    -0.637000000     2.189000000
H    -8.813000000     0.407000000     1.818000000
O    -2.179000000    -6.750000000    -1.244000000
H    -2.437000000    -6.920000000    -2.150000000
H    -2.731000000    -6.016000000    -0.972000000
O    -6.798000000    -8.490000000    -1.843000000
H    -6.083000000    -9.077000000    -2.088000000
H    -6.662000000    -8.323000000    -0.911000000
O    -0.640000000    -7.626000000     2.829000000
H    -1.180000000    -6.883000000     2.560000000
H    -1.192000000    -8.392000000     2.673000000
O    -7.689000000    -4.310000000     2.441000000
H    -8.182000000    -4.545000000     3.227000000
H    -8.083000000    -4.835000000     1.745000000
O    -5.173000000    -5.372000000     2.054000000
H    -6.059000000    -5.075000000     2.263000000
H    -4.833000000    -4.706000000     1.456000000
O    -2.795000000    -4.396000000     5.420000000
H    -3.018000000    -3.700000000     6.037000000
H    -2.149000000    -3.999000000     4.835000000
O    -0.928000000    -3.650000000     2.977000000
H    -1.069000000    -3.061000000     2.235000000
H    -1.451000000    -4.425000000     2.770000000
O    -0.216000000    -8.365000000    -0.142000000
H    -0.839000000    -7.687000000    -0.403000000
H    -0.575000000    -8.719000000     0.672000000
O    -9.770000000    -2.547000000    -0.720000000
H    -8.946000000    -2.922000000    -0.409000000
H   -10.229000000    -2.282000000     0.078000000
O    -8.846000000    -6.353000000     0.812000000
H    -9.042000000    -6.198000000    -0.112000000
H    -8.037000000    -6.864000000     0.802000000
O    -2.427000000    -6.041000000     1.730000000
H    -3.359000000    -5.981000000     1.938000000
H    -2.402000000    -6.196000000     0.785000000
O    -5.567000000    -5.922000000    -4.751000000
H    -5.521000000    -5.975000000    -3.796000000
H    -6.060000000    -5.120000000    -4.923000000
O    -5.022000000    -5.780000000    -2.205000000
H    -4.514000000    -5.095000000    -1.772000000
H    -5.742000000    -5.962000000    -1.600000000
O    -3.120000000    -7.891000000    -3.859000000
H    -3.825000000    -7.330000000    -4.184000000
H    -2.595000000    -8.089000000    -4.635000000
O    -7.083000000    -3.870000000    -0.690000000
H    -6.751000000    -3.176000000    -1.259000000
H    -6.458000000    -3.905000000     0.034000000
O    -6.501000000    -1.960000000     2.649000000
H    -5.752000000    -2.159000000     2.086000000
H    -7.033000000    -2.755000000     2.631000000
O    -6.416000000    -7.619000000     0.789000000
H    -5.768000000    -6.916000000     0.816000000
H    -6.027000000    -8.324000000     1.306000000
O    -5.881000000    -5.735000000     4.653000000
H    -5.278000000    -5.946000000     3.940000000
H    -5.323000000    -5.363000000     5.337000000
