218
-1447.20165
C    -2.175000000     1.821000000     4.679000000
H    -2.505000000     2.833000000     4.458000000
C    -0.910000000     1.412000000     4.272000000
C    -0.525000000     0.119000000     4.584000000
H     0.489000000    -0.156000000     4.305000000
C     0.015000000     2.349000000     3.498000000
O    -0.603000000     3.640000000     3.238000000
H     0.058000000     1.860000000     2.514000000
O     1.305000000     2.432000000     4.010000000
C     2.359000000     2.306000000     3.146000000
C     3.101000000     1.090000000     3.123000000
H     2.977000000     0.457000000     3.997000000
C     3.956000000     0.812000000     2.106000000
O     4.496000000    -0.428000000     2.069000000
C     4.295000000     1.775000000     1.139000000
C     5.394000000     1.543000000     0.154000000
H     5.886000000     2.469000000    -0.152000000
C     4.822000000     0.868000000    -1.085000000
C     4.242000000     1.680000000    -2.130000000
H     4.375000000     2.752000000    -2.014000000
H     6.104000000     0.819000000     0.559000000
C     3.675000000     3.029000000     1.203000000
H     3.903000000     3.725000000     0.399000000
C     2.717000000     3.297000000     2.208000000
C     1.984000000     4.656000000     2.231000000
H     2.741000000     5.367000000     1.895000000
H     1.767000000     4.987000000     3.249000000
C     0.727000000     4.647000000     1.384000000
C     0.806000000     4.937000000     0.036000000
H     1.715000000     5.285000000    -0.448000000
C    -0.500000000     4.174000000     1.937000000
C    -1.608000000     4.182000000     1.169000000
H    -2.560000000     3.843000000     1.569000000
C    -1.512000000     4.523000000    -0.165000000
O    -2.564000000     4.363000000    -0.946000000
C    -2.570000000     3.109000000    -1.660000000
C    -3.873000000     2.322000000    -1.350000000
C    -4.229000000     1.251000000    -2.128000000
H    -3.666000000     0.905000000    -2.990000000
C    -4.676000000     2.661000000    -0.241000000
H    -4.582000000     3.613000000     0.274000000
O    -2.377000000     3.380000000    -3.079000000
H    -1.751000000     2.467000000    -1.303000000
C    -0.302000000     4.890000000    -0.772000000
C    -0.272000000     5.268000000    -2.261000000
H     0.521000000     5.993000000    -2.459000000
H    -1.211000000     5.659000000    -2.659000000
C     0.011000000     3.998000000    -3.060000000
C     1.309000000     3.601000000    -3.371000000
H     2.122000000     4.244000000    -3.047000000
C    -1.056000000     3.192000000    -3.434000000
C    -0.837000000     2.014000000    -4.087000000
H    -1.688000000     1.459000000    -4.471000000
C     0.472000000     1.500000000    -4.275000000
O     0.592000000     0.233000000    -4.819000000
C     1.196000000    -0.781000000    -4.018000000
C     0.519000000    -2.124000000    -4.300000000
C    -0.833000000    -2.091000000    -4.505000000
H    -1.396000000    -1.167000000    -4.400000000
C     1.221000000    -3.360000000    -4.178000000
H     2.304000000    -3.391000000    -4.092000000
O     2.583000000    -0.863000000    -4.202000000
H     0.954000000    -0.683000000    -2.949000000
C     1.577000000     2.350000000    -3.952000000
C     2.999000000     2.011000000    -4.292000000
H     3.540000000     2.959000000    -4.322000000
H     3.064000000     1.595000000    -5.299000000
C     3.597000000     1.130000000    -3.260000000
C     3.430000000    -0.271000000    -3.272000000
C     3.943000000    -1.069000000    -2.250000000
H     3.586000000    -2.094000000    -2.214000000
C     4.604000000    -0.490000000    -1.181000000
O     4.989000000    -1.345000000    -0.147000000
C     4.069000000    -1.319000000     1.022000000
H     3.107000000    -0.932000000     0.653000000
C     3.684000000    -2.706000000     1.478000000
C     3.606000000    -2.936000000     2.887000000
H     3.800000000    -2.158000000     3.622000000
C     3.371000000    -3.791000000     0.574000000
H     3.438000000    -3.637000000    -0.500000000
C     2.959000000    -5.062000000     1.056000000
O     2.396000000    -6.004000000     0.346000000
C     2.812000000    -5.229000000     2.458000000
H     2.479000000    -6.169000000     2.889000000
C     3.166000000    -4.207000000     3.310000000
O     3.071000000    -4.449000000     4.627000000
C     2.297000000    -3.647000000     5.467000000
C     1.065000000    -3.198000000     5.024000000
H     0.868000000    -3.477000000     3.992000000
C     2.822000000    -3.288000000     6.724000000
H     3.836000000    -3.554000000     7.010000000
C     1.999000000    -2.430000000     7.553000000
H     2.311000000    -2.128000000     8.550000000
C     0.666000000    -2.112000000     7.103000000
H    -0.131000000    -1.666000000     7.693000000
C     0.246000000    -2.449000000     5.824000000
O    -0.925000000    -2.108000000     5.328000000
C    -1.340000000    -0.782000000     5.265000000
C    -2.657000000    -0.411000000     5.529000000
H    -3.470000000    -1.079000000     5.801000000
C    -3.029000000     0.939000000     5.334000000
O    -4.373000000     1.278000000     5.465000000
C    -5.069000000     2.093000000     4.607000000
C    -5.316000000     1.628000000     3.305000000
H    -5.087000000     0.663000000     2.860000000
C    -5.650000000     3.358000000     5.104000000
H    -5.538000000     3.576000000     6.163000000
C    -6.436000000     4.101000000     4.212000000
H    -6.966000000     4.997000000     4.526000000
C    -6.678000000     3.643000000     2.934000000
H    -7.247000000     4.270000000     2.252000000
C    -6.089000000     2.468000000     2.442000000
O    -6.530000000     2.028000000     1.215000000
C    -5.799000000     1.853000000     0.086000000
C    -6.160000000     0.875000000    -0.794000000
H    -7.055000000     0.266000000    -0.693000000
C    -5.386000000     0.616000000    -1.918000000
O    -5.783000000    -0.413000000    -2.735000000
C    -5.192000000    -0.860000000    -3.860000000
C    -4.233000000    -1.900000000    -3.850000000
H    -4.079000000    -2.400000000    -2.897000000
C    -5.268000000     0.011000000    -4.995000000
H    -5.877000000     0.908000000    -4.919000000
C    -4.663000000    -0.336000000    -6.189000000
H    -4.907000000     0.135000000    -7.137000000
C    -3.952000000    -1.536000000    -6.229000000
H    -3.580000000    -1.895000000    -7.185000000
C    -3.678000000    -2.259000000    -5.071000000
O    -2.897000000    -3.378000000    -5.079000000
C    -1.513000000    -3.336000000    -4.763000000
C    -0.807000000    -4.528000000    -4.675000000
H    -1.254000000    -5.497000000    -4.878000000
C     0.549000000    -4.577000000    -4.395000000
O     1.278000000    -5.759000000    -4.344000000
C     2.087000000    -6.183000000    -3.280000000
C     3.330000000    -6.787000000    -3.609000000
H     3.607000000    -7.103000000    -4.612000000
C     4.250000000    -7.064000000    -2.604000000
H     5.244000000    -7.472000000    -2.768000000
C     3.909000000    -6.685000000    -1.292000000
H     4.603000000    -6.952000000    -0.499000000
C     2.659000000    -6.208000000    -1.009000000
C     1.813000000    -5.887000000    -1.957000000
H     0.900000000    -5.332000000    -1.757000000
C    -1.797000000    -1.014000000     1.104000000
H    -2.782000000    -0.857000000     1.534000000
C    -1.121000000     0.058000000     0.508000000
H    -1.692000000     0.981000000     0.572000000
C     0.091000000    -0.147000000    -0.038000000
C     0.844000000     1.029000000    -0.506000000
H     0.553000000     1.480000000    -1.457000000
H     0.714000000     1.650000000     0.383000000
H     1.921000000     0.901000000    -0.380000000
C     0.653000000    -1.434000000     0.027000000
H     1.594000000    -1.757000000    -0.411000000
C     0.038000000    -2.455000000     0.678000000
H     0.541000000    -3.417000000     0.732000000
C    -1.208000000    -2.250000000     1.257000000
C    -1.855000000    -3.454000000     1.955000000
O    -1.444000000    -4.583000000     1.661000000
O    -2.810000000    -3.298000000     2.694000000
O    -0.167000000    -6.947000000     1.436000000
H     0.492000000    -6.693000000     0.789000000
H    -0.544000000    -6.118000000     1.731000000
O    -7.746000000    -2.331000000     1.303000000
H    -8.377000000    -1.941000000     0.699000000
H    -7.943000000    -1.928000000     2.149000000
O    -3.186000000    -7.195000000    -3.547000000
H    -3.709000000    -6.962000000    -4.314000000
H    -3.574000000    -6.692000000    -2.831000000
O    -3.076000000    -3.767000000     5.191000000
H    -3.001000000    -3.671000000     4.242000000
H    -2.291000000    -3.342000000     5.537000000
O    -5.428000000    -2.699000000     5.948000000
H    -5.332000000    -2.621000000     6.897000000
H    -4.534000000    -2.817000000     5.626000000
O    -1.780000000    -9.483000000     1.306000000
H    -1.258000000    -8.693000000     1.444000000
H    -2.521000000    -9.191000000     0.776000000
O    -6.603000000    -4.616000000     4.265000000
H    -6.090000000    -4.693000000     3.461000000
H    -6.058000000    -4.085000000     4.847000000
O     0.709000000    -6.847000000     6.529000000
H     1.293000000    -6.687000000     7.270000000
H     0.340000000    -5.987000000     6.326000000
O     1.344000000    -9.118000000     2.620000000
H     2.271000000    -8.959000000     2.803000000
H     1.059000000    -8.342000000     2.139000000
O    -7.080000000    -5.049000000     0.724000000
H    -6.143000000    -5.028000000     0.921000000
H    -7.419000000    -4.231000000     1.089000000
O    -4.867000000    -4.582000000     1.992000000
H    -4.584000000    -5.482000000     2.156000000
H    -4.122000000    -4.044000000     2.259000000
O    -0.817000000    -7.226000000    -2.378000000
H    -1.094000000    -6.826000000    -1.554000000
H    -1.596000000    -7.194000000    -2.933000000
O    -4.789000000    -5.647000000    -1.503000000
H    -4.913000000    -4.850000000    -0.988000000
H    -5.019000000    -5.392000000    -2.397000000
O    -6.204000000    -3.074000000    -1.506000000
H    -6.542000000    -2.915000000    -0.625000000
H    -6.176000000    -2.207000000    -1.912000000
O    -1.888000000    -5.372000000    -0.829000000
H    -2.775000000    -5.729000000    -0.772000000
H    -1.720000000    -5.010000000     0.040000000
O    -6.078000000    -6.268000000     6.787000000
H    -5.309000000    -6.182000000     6.224000000
H    -6.352000000    -7.179000000     6.682000000
O    -3.989000000    -8.315000000    -0.115000000
H    -4.705000000    -8.534000000     0.482000000
H    -4.214000000    -7.448000000    -0.452000000
O    -3.482000000    -6.316000000     5.302000000
H    -3.031000000    -6.587000000     4.502000000
H    -3.296000000    -5.380000000     5.377000000
O    -4.204000000    -7.163000000     2.503000000
H    -4.929000000    -7.761000000     2.681000000
H    -3.598000000    -7.673000000     1.966000000
