218
-1488.83078
C    -2.215000000     2.655000000     3.529000000
H    -2.549000000     3.407000000     2.819000000
C    -0.795000000     2.396000000     3.717000000
C    -0.346000000     1.662000000     4.786000000
H     0.694000000     1.490000000     5.051000000
C     0.168000000     2.963000000     2.763000000
O    -0.237000000     4.307000000     2.274000000
H     0.077000000     2.277000000     1.908000000
O     1.454000000     2.980000000     3.290000000
C     2.531000000     2.669000000     2.487000000
C     3.170000000     1.473000000     2.811000000
H     2.799000000     0.921000000     3.670000000
C     4.052000000     0.910000000     1.884000000
O     4.589000000    -0.353000000     2.041000000
C     4.443000000     1.710000000     0.850000000
C     5.502000000     1.182000000    -0.121000000
H     6.043000000     1.995000000    -0.610000000
C     4.800000000     0.293000000    -1.122000000
C     4.424000000     0.951000000    -2.268000000
H     4.355000000     2.034000000    -2.206000000
H     6.188000000     0.497000000     0.382000000
C     3.913000000     2.963000000     0.553000000
H     4.256000000     3.587000000    -0.268000000
C     2.893000000     3.477000000     1.376000000
C     2.383000000     4.884000000     1.192000000
H     3.100000000     5.457000000     0.599000000
H     2.282000000     5.362000000     2.169000000
C     1.101000000     4.861000000     0.373000000
C     1.147000000     4.902000000    -1.040000000
H     2.135000000     4.956000000    -1.491000000
C    -0.144000000     4.617000000     0.976000000
C    -1.317000000     4.567000000     0.239000000
H    -2.208000000     4.408000000     0.840000000
C    -1.230000000     4.575000000    -1.153000000
O    -2.406000000     4.268000000    -1.912000000
C    -2.521000000     2.882000000    -2.256000000
C    -3.953000000     2.337000000    -2.141000000
C    -4.456000000     1.283000000    -2.911000000
H    -3.869000000     0.976000000    -3.773000000
C    -4.668000000     2.869000000    -1.073000000
H    -4.313000000     3.761000000    -0.563000000
O    -2.022000000     2.739000000    -3.616000000
H    -1.912000000     2.388000000    -1.485000000
C     0.004000000     4.763000000    -1.806000000
C     0.094000000     4.756000000    -3.363000000
H     0.935000000     5.336000000    -3.747000000
H    -0.830000000     5.132000000    -3.808000000
C     0.282000000     3.388000000    -3.793000000
C     1.523000000     2.812000000    -4.123000000
H     2.343000000     3.524000000    -4.084000000
C    -0.754000000     2.449000000    -3.878000000
C    -0.555000000     1.078000000    -4.083000000
H    -1.387000000     0.379000000    -4.050000000
C     0.681000000     0.601000000    -4.458000000
O     0.715000000    -0.798000000    -4.699000000
C     1.231000000    -1.612000000    -3.641000000
C     0.476000000    -2.908000000    -3.497000000
C    -0.824000000    -2.795000000    -3.122000000
H    -1.140000000    -1.759000000    -3.027000000
C     1.057000000    -4.213000000    -3.480000000
H     2.092000000    -4.444000000    -3.718000000
O     2.572000000    -1.808000000    -3.967000000
H     1.185000000    -1.008000000    -2.723000000
C     1.779000000     1.474000000    -4.397000000
C     3.165000000     0.929000000    -4.550000000
H     3.839000000     1.751000000    -4.801000000
H     3.272000000     0.263000000    -5.408000000
C     3.723000000     0.346000000    -3.290000000
C     3.438000000    -1.105000000    -3.134000000
C     3.879000000    -1.767000000    -2.052000000
H     3.690000000    -2.830000000    -1.929000000
C     4.539000000    -1.065000000    -1.043000000
O     4.843000000    -1.649000000     0.142000000
C     3.953000000    -1.387000000     1.278000000
H     2.992000000    -1.023000000     0.885000000
C     3.611000000    -2.652000000     2.114000000
C     3.185000000    -2.468000000     3.423000000
H     3.369000000    -1.528000000     3.937000000
C     3.375000000    -3.872000000     1.520000000
H     3.484000000    -4.062000000     0.455000000
C     2.832000000    -4.963000000     2.290000000
O     2.644000000    -6.159000000     1.658000000
C     2.515000000    -4.783000000     3.607000000
H     2.050000000    -5.575000000     4.189000000
C     2.662000000    -3.558000000     4.170000000
O     2.275000000    -3.494000000     5.497000000
C     1.859000000    -2.319000000     6.138000000
C     0.641000000    -1.760000000     5.890000000
H    -0.170000000    -2.129000000     5.268000000
C     2.696000000    -1.769000000     7.040000000
H     3.664000000    -2.257000000     7.125000000
C     2.274000000    -0.660000000     7.827000000
H     2.926000000    -0.349000000     8.639000000
C     0.994000000    -0.086000000     7.619000000
H     0.679000000     0.702000000     8.298000000
C     0.211000000    -0.662000000     6.655000000
O    -0.995000000    -0.180000000     6.368000000
C    -1.266000000     0.853000000     5.470000000
C    -2.644000000     1.038000000     5.223000000
H    -3.316000000     0.499000000     5.885000000
C    -3.095000000     1.938000000     4.264000000
O    -4.471000000     2.097000000     4.186000000
C    -5.209000000     2.957000000     3.395000000
C    -5.568000000     2.567000000     2.145000000
H    -5.243000000     1.607000000     1.751000000
C    -5.626000000     4.211000000     3.860000000
H    -5.314000000     4.659000000     4.800000000
C    -6.485000000     4.989000000     3.082000000
H    -6.837000000     5.984000000     3.344000000
C    -6.937000000     4.473000000     1.890000000
H    -7.421000000     5.214000000     1.259000000
C    -6.392000000     3.355000000     1.305000000
O    -6.826000000     2.895000000     0.041000000
C    -5.969000000     2.353000000    -0.862000000
C    -6.438000000     1.242000000    -1.585000000
H    -7.432000000     0.896000000    -1.312000000
C    -5.704000000     0.715000000    -2.652000000
O    -6.261000000    -0.275000000    -3.459000000
C    -5.582000000    -1.362000000    -3.858000000
C    -4.744000000    -2.052000000    -2.987000000
H    -4.654000000    -1.820000000    -1.928000000
C    -5.710000000    -1.754000000    -5.219000000
H    -6.366000000    -1.223000000    -5.904000000
C    -4.958000000    -2.776000000    -5.697000000
H    -4.914000000    -2.995000000    -6.761000000
C    -4.009000000    -3.403000000    -4.883000000
H    -3.339000000    -4.201000000    -5.192000000
C    -3.952000000    -3.077000000    -3.525000000
O    -3.006000000    -3.842000000    -2.718000000
C    -1.670000000    -3.956000000    -2.887000000
C    -1.101000000    -5.241000000    -2.843000000
H    -1.657000000    -6.089000000    -2.452000000
C     0.302000000    -5.348000000    -3.038000000
O     1.010000000    -6.530000000    -2.854000000
C     2.035000000    -6.714000000    -1.917000000
C     3.082000000    -7.538000000    -2.283000000
H     3.177000000    -8.048000000    -3.238000000
C     4.074000000    -7.740000000    -1.306000000
H     4.987000000    -8.291000000    -1.516000000
C     3.987000000    -7.292000000     0.010000000
H     4.657000000    -7.629000000     0.796000000
C     2.893000000    -6.486000000     0.294000000
C     1.931000000    -6.164000000    -0.659000000
H     1.102000000    -5.497000000    -0.438000000
C    -2.054000000    -0.390000000     0.971000000
H    -2.889000000     0.029000000     1.526000000
C    -1.161000000     0.450000000     0.370000000
H    -1.235000000     1.533000000     0.330000000
C     0.010000000    -0.040000000    -0.149000000
C     0.999000000     0.864000000    -0.736000000
H     0.757000000     1.226000000    -1.738000000
H     0.921000000     1.767000000    -0.127000000
H     1.970000000     0.364000000    -0.728000000
C     0.332000000    -1.382000000     0.013000000
H     1.255000000    -1.828000000    -0.350000000
C    -0.614000000    -2.328000000     0.496000000
H    -0.300000000    -3.357000000     0.653000000
C    -1.771000000    -1.795000000     1.051000000
C    -2.757000000    -2.733000000     1.695000000
O    -2.420000000    -3.882000000     1.975000000
O    -3.737000000    -2.262000000     2.222000000
O    -3.007000000    -2.022000000     4.772000000
H    -2.564000000    -1.190000000     4.606000000
H    -3.434000000    -2.235000000     3.942000000
O    -7.705000000    -1.381000000     0.341000000
H    -7.448000000    -2.248000000     0.026000000
H    -7.094000000    -1.195000000     1.054000000
O    -4.467000000    -1.537000000     7.039000000
H    -3.898000000    -1.667000000     6.281000000
H    -3.998000000    -1.949000000     7.765000000
O    -5.874000000    -0.616000000     2.563000000
H    -5.127000000    -1.139000000     2.274000000
H    -6.178000000    -1.051000000     3.360000000
O    -2.858000000    -5.593000000     7.722000000
H    -2.269000000    -5.922000000     7.043000000
H    -2.279000000    -5.172000000     8.357000000
O    -0.638000000    -7.847000000     2.689000000
H    -1.350000000    -8.005000000     2.069000000
H    -0.711000000    -6.917000000     2.904000000
O    -3.079000000    -8.974000000     4.582000000
H    -2.354000000    -8.359000000     4.469000000
H    -2.729000000    -9.813000000     4.281000000
O    -4.756000000    -4.210000000     5.350000000
H    -4.909000000    -4.726000000     6.142000000
H    -3.873000000    -3.858000000     5.461000000
O    -1.113000000    -6.490000000     5.990000000
H    -0.976000000    -5.926000000     5.228000000
H    -0.286000000    -6.451000000     6.469000000
O    -4.790000000    -6.349000000    -3.662000000
H    -5.567000000    -6.840000000    -3.932000000
H    -5.115000000    -5.727000000    -3.011000000
O    -4.400000000    -5.465000000     2.867000000
H    -3.737000000    -4.914000000     2.450000000
H    -4.690000000    -4.957000000     3.626000000
O    -6.008000000    -7.477000000     2.566000000
H    -5.398000000    -6.739000000     2.570000000
H    -6.023000000    -7.779000000     3.474000000
O    -8.814000000     1.067000000     2.299000000
H    -8.492000000     1.488000000     3.096000000
H    -8.193000000     0.358000000     2.135000000
O    -6.290000000    -5.487000000    -1.383000000
H    -7.011000000    -6.003000000    -1.023000000
H    -6.043000000    -4.893000000    -0.673000000
O    -5.872000000    -3.811000000     1.013000000
H    -5.401000000    -3.033000000     1.312000000
H    -5.836000000    -4.413000000     1.756000000
O    -2.621000000    -5.717000000     0.142000000
H    -2.957000000    -5.221000000    -0.605000000
H    -2.525000000    -5.066000000     0.837000000
O    -6.465000000    -1.922000000     4.914000000
H    -5.950000000    -1.655000000     5.675000000
H    -6.277000000    -2.855000000     4.812000000
O    -0.672000000    -5.203000000     3.499000000
H    -1.431000000    -4.700000000     3.203000000
H     0.030000000    -4.557000000     3.571000000
O    -2.874000000    -8.133000000     1.167000000
H    -3.756000000    -8.280000000     1.508000000
H    -2.941000000    -7.316000000     0.672000000
