218
-1435.67072
C    -1.715000000     2.119000000     4.165000000
H    -2.126000000     2.553000000     3.257000000
C    -0.346000000     2.184000000     4.413000000
C     0.239000000     1.526000000     5.492000000
H     1.293000000     1.620000000     5.744000000
C     0.548000000     2.807000000     3.321000000
O     0.013000000     4.077000000     2.878000000
H     0.442000000     1.994000000     2.588000000
O     1.929000000     3.111000000     3.714000000
C     2.809000000     2.693000000     2.716000000
C     3.357000000     1.435000000     2.834000000
H     3.114000000     0.747000000     3.639000000
C     4.173000000     0.942000000     1.763000000
O     4.519000000    -0.378000000     1.922000000
C     4.517000000     1.797000000     0.672000000
C     5.390000000     1.321000000    -0.461000000
H     5.877000000     2.162000000    -0.959000000
C     4.670000000     0.450000000    -1.527000000
C     4.181000000     1.019000000    -2.671000000
H     4.430000000     2.068000000    -2.810000000
H     6.216000000     0.739000000    -0.045000000
C     3.953000000     3.055000000     0.628000000
H     4.153000000     3.647000000    -0.261000000
C     3.145000000     3.555000000     1.640000000
C     2.488000000     4.914000000     1.536000000
H     3.055000000     5.532000000     0.838000000
H     2.520000000     5.525000000     2.440000000
C     1.124000000     4.705000000     0.802000000
C     0.981000000     4.897000000    -0.516000000
H     1.818000000     5.309000000    -1.072000000
C    -0.022000000     4.390000000     1.475000000
C    -1.229000000     4.036000000     0.812000000
H    -2.082000000     3.692000000     1.391000000
C    -1.310000000     4.193000000    -0.532000000
O    -2.511000000     4.023000000    -1.171000000
C    -2.660000000     2.814000000    -1.995000000
C    -4.069000000     2.354000000    -1.702000000
C    -4.686000000     1.554000000    -2.656000000
H    -4.244000000     1.344000000    -3.627000000
C    -4.760000000     2.579000000    -0.516000000
H    -4.404000000     3.387000000     0.117000000
O    -2.482000000     3.086000000    -3.405000000
H    -1.999000000     2.013000000    -1.633000000
C    -0.216000000     4.582000000    -1.228000000
C    -0.263000000     4.787000000    -2.757000000
H     0.498000000     5.510000000    -3.057000000
H    -1.204000000     5.197000000    -3.129000000
C    -0.045000000     3.444000000    -3.551000000
C     1.234000000     2.942000000    -3.845000000
H     2.068000000     3.558000000    -3.520000000
C    -1.214000000     2.771000000    -3.921000000
C    -1.042000000     1.398000000    -4.377000000
H    -1.886000000     0.723000000    -4.263000000
C     0.191000000     0.833000000    -4.561000000
O     0.335000000    -0.496000000    -4.748000000
C     0.812000000    -1.402000000    -3.751000000
C    -0.027000000    -2.674000000    -3.540000000
C    -1.425000000    -2.588000000    -3.492000000
H    -1.876000000    -1.626000000    -3.725000000
C     0.537000000    -3.903000000    -3.205000000
H     1.617000000    -3.976000000    -3.107000000
O     2.221000000    -1.787000000    -4.054000000
H     0.849000000    -0.889000000    -2.779000000
C     1.353000000     1.630000000    -4.363000000
C     2.703000000     1.035000000    -4.800000000
H     3.451000000     1.756000000    -5.135000000
H     2.495000000     0.319000000    -5.598000000
C     3.423000000     0.326000000    -3.630000000
C     3.246000000    -1.082000000    -3.477000000
C     3.799000000    -1.674000000    -2.336000000
H     3.538000000    -2.714000000    -2.160000000
C     4.526000000    -0.913000000    -1.356000000
O     4.951000000    -1.531000000    -0.228000000
C     4.007000000    -1.295000000     0.920000000
H     3.139000000    -0.790000000     0.471000000
C     3.517000000    -2.559000000     1.586000000
C     2.809000000    -2.491000000     2.810000000
H     2.404000000    -1.563000000     3.204000000
C     3.665000000    -3.827000000     0.970000000
H     4.287000000    -3.945000000     0.087000000
C     3.275000000    -5.004000000     1.648000000
O     3.418000000    -6.202000000     1.062000000
C     2.626000000    -4.956000000     2.859000000
H     2.332000000    -5.790000000     3.491000000
C     2.445000000    -3.706000000     3.427000000
O     1.859000000    -3.634000000     4.631000000
C     2.015000000    -2.633000000     5.656000000
C     0.917000000    -1.803000000     5.957000000
H    -0.049000000    -2.040000000     5.518000000
C     3.282000000    -2.378000000     6.202000000
H     4.074000000    -2.980000000     5.764000000
C     3.494000000    -1.258000000     6.943000000
H     4.464000000    -1.051000000     7.388000000
C     2.338000000    -0.524000000     7.391000000
H     2.494000000     0.241000000     8.147000000
C     1.108000000    -0.890000000     6.920000000
O     0.048000000    -0.056000000     7.248000000
C    -0.583000000     0.743000000     6.341000000
C    -1.930000000     0.602000000     5.998000000
H    -2.600000000    -0.025000000     6.581000000
C    -2.513000000     1.303000000     4.932000000
O    -3.854000000     1.106000000     4.510000000
C    -4.748000000     1.989000000     3.924000000
C    -5.228000000     1.725000000     2.655000000
H    -4.906000000     0.861000000     2.079000000
C    -5.179000000     3.139000000     4.593000000
H    -4.831000000     3.327000000     5.606000000
C    -6.128000000     3.964000000     4.062000000
H    -6.488000000     4.853000000     4.574000000
C    -6.644000000     3.740000000     2.707000000
H    -7.359000000     4.420000000     2.252000000
C    -6.234000000     2.539000000     2.109000000
O    -6.765000000     2.222000000     0.862000000
C    -6.029000000     2.010000000    -0.321000000
C    -6.625000000     1.274000000    -1.358000000
H    -7.641000000     0.934000000    -1.174000000
C    -5.942000000     1.106000000    -2.564000000
O    -6.540000000     0.268000000    -3.461000000
C    -5.765000000    -0.747000000    -4.038000000
C    -4.947000000    -1.617000000    -3.319000000
H    -4.898000000    -1.640000000    -2.233000000
C    -5.904000000    -0.984000000    -5.410000000
H    -6.410000000    -0.253000000    -6.036000000
C    -5.204000000    -2.044000000    -6.069000000
H    -5.323000000    -2.049000000    -7.150000000
C    -4.295000000    -2.825000000    -5.366000000
H    -3.888000000    -3.730000000    -5.811000000
C    -4.295000000    -2.672000000    -3.986000000
O    -3.642000000    -3.556000000    -3.171000000
C    -2.236000000    -3.698000000    -3.230000000
C    -1.621000000    -4.895000000    -2.870000000
H    -2.312000000    -5.726000000    -2.757000000
C    -0.269000000    -5.019000000    -2.901000000
O     0.275000000    -6.224000000    -2.487000000
C     1.596000000    -6.359000000    -2.054000000
C     2.610000000    -6.345000000    -3.000000000
H     2.487000000    -6.181000000    -4.067000000
C     3.912000000    -6.572000000    -2.577000000
H     4.720000000    -6.648000000    -3.302000000
C     4.189000000    -6.712000000    -1.203000000
H     5.168000000    -6.799000000    -0.738000000
C     3.162000000    -6.404000000    -0.281000000
C     1.830000000    -6.293000000    -0.680000000
H     0.947000000    -6.145000000    -0.064000000
C    -2.974000000    -0.640000000     0.264000000
H    -3.949000000    -0.299000000     0.603000000
C    -1.947000000     0.291000000     0.250000000
H    -2.143000000     1.327000000     0.514000000
C    -0.674000000    -0.096000000    -0.063000000
C     0.566000000     0.806000000    -0.208000000
H     0.276000000     1.793000000     0.157000000
H     1.416000000     0.435000000     0.369000000
H     0.854000000     0.775000000    -1.261000000
C    -0.380000000    -1.403000000    -0.101000000
H     0.666000000    -1.683000000    -0.198000000
C    -1.393000000    -2.403000000    -0.169000000
H    -1.177000000    -3.468000000    -0.152000000
C    -2.750000000    -1.998000000     0.083000000
C    -3.805000000    -3.072000000     0.166000000
O    -3.549000000    -4.184000000     0.538000000
O    -4.904000000    -2.556000000     0.215000000
O    -9.041000000    -4.760000000    -2.929000000
H    -9.392000000    -5.208000000    -2.159000000
H    -8.149000000    -4.519000000    -2.680000000
O    -3.833000000    -2.368000000     3.489000000
H    -4.651000000    -2.524000000     3.018000000
H    -3.397000000    -1.677000000     2.990000000
O    -8.999000000    -1.247000000    -0.615000000
H    -8.484000000    -1.954000000    -0.226000000
H    -9.246000000    -0.694000000     0.126000000
O    -3.829000000    -8.021000000    -2.989000000
H    -4.288000000    -8.032000000    -2.149000000
H    -4.493000000    -7.746000000    -3.621000000
O    -6.177000000    -1.880000000     2.277000000
H    -5.820000000    -2.065000000     1.409000000
H    -6.962000000    -2.425000000     2.335000000
O    -5.816000000    -1.143000000     5.138000000
H    -5.053000000    -0.577000000     5.021000000
H    -5.771000000    -1.761000000     4.408000000
O    -2.087000000    -4.224000000     4.972000000
H    -1.973000000    -3.787000000     5.816000000
H    -2.375000000    -3.528000000     4.380000000
O    -8.282000000    -3.462000000     2.924000000
H    -8.334000000    -3.758000000     2.016000000
H    -8.962000000    -3.960000000     3.378000000
O    -1.313000000    -6.638000000     3.828000000
H    -1.246000000    -5.742000000     4.157000000
H    -1.466000000    -7.170000000     4.609000000
O    -7.490000000    -6.747000000    -1.519000000
H    -7.193000000    -6.940000000    -0.629000000
H    -7.815000000    -7.585000000    -1.849000000
O    -4.215000000    -5.857000000     4.241000000
H    -4.498000000    -4.982000000     4.509000000
H    -3.293000000    -5.899000000     4.495000000
O    -6.688000000    -3.829000000    -1.073000000
H    -6.047000000    -3.309000000    -0.588000000
H    -6.211000000    -4.618000000    -1.331000000
O    -7.042000000    -7.771000000     1.285000000
H    -7.970000000    -7.536000000     1.284000000
H    -6.583000000    -6.937000000     1.384000000
O    -5.589000000    -5.533000000     1.385000000
H    -4.952000000    -5.542000000     2.099000000
H    -5.287000000    -4.835000000     0.803000000
O    -8.763000000    -4.586000000     0.519000000
H    -8.077000000    -4.392000000    -0.119000000
H    -9.007000000    -5.494000000     0.339000000
O    -4.014000000    -7.811000000     0.370000000
H    -3.192000000    -7.326000000     0.308000000
H    -4.480000000    -7.402000000     1.099000000
O    -1.820000000    -6.313000000     0.588000000
H    -2.509000000    -5.679000000     0.390000000
H    -1.560000000    -6.112000000     1.487000000
O    -6.216000000    -6.524000000    -4.408000000
H    -6.305000000    -6.477000000    -3.456000000
H    -6.470000000    -7.420000000    -4.629000000
O    -0.876000000    -8.774000000     0.474000000
H    -0.103000000    -8.811000000     1.038000000
H    -1.229000000    -7.895000000     0.610000000
