218
-1461.80450
C    -1.861000000     2.819000000     4.458000000
H    -2.413000000     3.504000000     3.820000000
C    -0.518000000     2.459000000     4.203000000
C     0.147000000     1.661000000     5.183000000
H     1.211000000     1.460000000     5.083000000
C     0.282000000     3.100000000     3.040000000
O    -0.237000000     4.417000000     2.767000000
H     0.296000000     2.432000000     2.165000000
O     1.671000000     3.237000000     3.425000000
C     2.590000000     2.909000000     2.477000000
C     3.070000000     1.568000000     2.522000000
H     2.802000000     0.909000000     3.344000000
C     3.910000000     1.076000000     1.513000000
O     4.313000000    -0.229000000     1.637000000
C     4.276000000     1.924000000     0.464000000
C     5.212000000     1.489000000    -0.580000000
H     5.624000000     2.360000000    -1.094000000
C     4.521000000     0.629000000    -1.680000000
C     4.020000000     1.231000000    -2.838000000
H     4.088000000     2.313000000    -2.915000000
H     6.013000000     0.902000000    -0.124000000
C     3.812000000     3.220000000     0.385000000
H     4.026000000     3.843000000    -0.479000000
C     2.872000000     3.681000000     1.341000000
C     2.192000000     5.083000000     1.129000000
H     2.810000000     5.693000000     0.467000000
H     2.115000000     5.710000000     2.020000000
C     0.843000000     4.831000000     0.558000000
C     0.691000000     4.928000000    -0.806000000
H     1.560000000     5.001000000    -1.455000000
C    -0.279000000     4.599000000     1.424000000
C    -1.487000000     4.375000000     0.763000000
H    -2.270000000     4.074000000     1.455000000
C    -1.622000000     4.403000000    -0.616000000
O    -2.832000000     3.999000000    -1.241000000
C    -2.824000000     2.679000000    -1.767000000
C    -4.072000000     1.912000000    -1.223000000
C    -4.618000000     0.870000000    -1.976000000
H    -4.208000000     0.590000000    -2.943000000
C    -4.629000000     2.246000000     0.059000000
H    -4.148000000     2.955000000     0.728000000
O    -2.701000000     2.810000000    -3.200000000
H    -1.935000000     2.132000000    -1.419000000
C    -0.547000000     4.679000000    -1.438000000
C    -0.561000000     4.718000000    -2.970000000
H     0.133000000     5.428000000    -3.426000000
H    -1.491000000     5.147000000    -3.351000000
C    -0.356000000     3.345000000    -3.562000000
C     0.889000000     2.917000000    -3.991000000
H     1.731000000     3.604000000    -3.959000000
C    -1.460000000     2.481000000    -3.709000000
C    -1.190000000     1.225000000    -4.270000000
H    -2.041000000     0.549000000    -4.288000000
C     0.099000000     0.759000000    -4.634000000
O     0.235000000    -0.569000000    -4.896000000
C     0.861000000    -1.486000000    -3.982000000
C     0.196000000    -2.887000000    -4.031000000
C    -1.194000000    -3.083000000    -3.936000000
H    -1.890000000    -2.257000000    -3.811000000
C     0.996000000    -4.050000000    -4.084000000
H     2.081000000    -4.035000000    -4.136000000
O     2.237000000    -1.598000000    -4.325000000
H     0.810000000    -1.131000000    -2.942000000
C     1.140000000     1.632000000    -4.517000000
C     2.556000000     1.197000000    -4.925000000
H     3.170000000     2.072000000    -5.151000000
H     2.632000000     0.583000000    -5.824000000
C     3.313000000     0.457000000    -3.803000000
C     3.154000000    -0.900000000    -3.569000000
C     3.616000000    -1.541000000    -2.416000000
H     3.382000000    -2.562000000    -2.125000000
C     4.338000000    -0.780000000    -1.453000000
O     4.633000000    -1.426000000    -0.307000000
C     3.725000000    -1.128000000     0.790000000
H     2.855000000    -0.617000000     0.351000000
C     3.242000000    -2.437000000     1.484000000
C     2.641000000    -2.419000000     2.711000000
H     2.596000000    -1.506000000     3.299000000
C     3.177000000    -3.621000000     0.802000000
H     3.699000000    -3.729000000    -0.145000000
C     2.609000000    -4.831000000     1.373000000
O     2.664000000    -6.071000000     0.855000000
C     2.092000000    -4.784000000     2.677000000
H     1.661000000    -5.694000000     3.085000000
C     2.080000000    -3.554000000     3.352000000
O     1.404000000    -3.387000000     4.587000000
C     1.822000000    -2.456000000     5.584000000
C     0.790000000    -1.674000000     6.064000000
H    -0.193000000    -1.798000000     5.615000000
C     3.171000000    -2.252000000     6.091000000
H     4.028000000    -2.880000000     5.859000000
C     3.409000000    -1.210000000     6.964000000
H     4.390000000    -1.095000000     7.419000000
C     2.373000000    -0.354000000     7.317000000
H     2.666000000     0.460000000     7.975000000
C     1.032000000    -0.568000000     6.874000000
O     0.057000000     0.402000000     7.148000000
C    -0.548000000     1.263000000     6.291000000
C    -1.874000000     1.584000000     6.469000000
H    -2.357000000     1.034000000     7.273000000
C    -2.548000000     2.420000000     5.618000000
O    -3.920000000     2.767000000     5.765000000
C    -4.680000000     3.210000000     4.742000000
C    -5.077000000     2.303000000     3.844000000
H    -4.959000000     1.262000000     4.136000000
C    -4.828000000     4.596000000     4.439000000
H    -4.400000000     5.387000000     5.049000000
C    -5.472000000     4.955000000     3.249000000
H    -5.626000000     5.988000000     2.948000000
C    -5.841000000     3.960000000     2.341000000
H    -6.314000000     4.280000000     1.415000000
C    -5.691000000     2.638000000     2.618000000
O    -6.165000000     1.621000000     1.837000000
C    -5.711000000     1.471000000     0.562000000
C    -6.182000000     0.388000000    -0.175000000
H    -6.968000000    -0.269000000     0.190000000
C    -5.583000000     0.030000000    -1.409000000
O    -5.867000000    -1.197000000    -1.863000000
C    -5.358000000    -1.949000000    -2.916000000
C    -4.347000000    -2.912000000    -2.776000000
H    -3.894000000    -3.005000000    -1.792000000
C    -5.756000000    -1.643000000    -4.201000000
H    -6.548000000    -0.919000000    -4.373000000
C    -5.294000000    -2.325000000    -5.261000000
H    -5.653000000    -2.180000000    -6.277000000
C    -4.377000000    -3.321000000    -5.093000000
H    -3.964000000    -3.808000000    -5.974000000
C    -3.955000000    -3.643000000    -3.830000000
O    -3.003000000    -4.579000000    -3.720000000
C    -1.691000000    -4.388000000    -3.835000000
C    -0.872000000    -5.466000000    -3.716000000
H    -1.358000000    -6.432000000    -3.607000000
C     0.447000000    -5.309000000    -3.893000000
O     1.222000000    -6.460000000    -3.885000000
C     2.079000000    -6.602000000    -2.798000000
C     3.368000000    -7.149000000    -3.079000000
H     3.737000000    -7.363000000    -4.079000000
C     4.331000000    -7.376000000    -2.130000000
H     5.351000000    -7.660000000    -2.374000000
C     4.072000000    -6.865000000    -0.863000000
H     4.811000000    -6.961000000    -0.071000000
C     2.847000000    -6.333000000    -0.509000000
C     1.833000000    -6.254000000    -1.471000000
H     0.867000000    -5.890000000    -1.132000000
C    -2.485000000    -0.170000000     1.447000000
H    -3.240000000     0.220000000     2.126000000
C    -1.502000000     0.687000000     1.019000000
H    -1.527000000     1.699000000     1.414000000
C    -0.597000000     0.197000000     0.096000000
C     0.489000000     1.150000000    -0.359000000
H     0.098000000     2.166000000    -0.267000000
H     1.295000000     0.995000000     0.362000000
H     0.717000000     1.029000000    -1.420000000
C    -0.745000000    -1.123000000    -0.425000000
H     0.001000000    -1.499000000    -1.121000000
C    -1.778000000    -1.910000000     0.076000000
H    -1.956000000    -2.949000000    -0.189000000
C    -2.761000000    -1.421000000     0.935000000
C    -3.946000000    -2.307000000     1.325000000
O    -4.177000000    -3.301000000     0.657000000
O    -4.622000000    -2.151000000     2.322000000
O    -1.852000000    -3.193000000     3.760000000
H    -2.169000000    -2.726000000     2.987000000
H    -1.364000000    -3.937000000     3.408000000
O    -9.244000000    -0.904000000    -0.148000000
H    -9.349000000    -1.660000000    -0.727000000
H    -8.700000000    -1.227000000     0.570000000
O    -7.726000000    -1.942000000     1.836000000
H    -6.818000000    -1.662000000     1.951000000
H    -7.682000000    -2.899000000     1.824000000
O    -3.800000000    -1.215000000     4.713000000
H    -2.965000000    -1.680000000     4.756000000
H    -4.089000000    -1.323000000     3.807000000
O    -2.592000000    -4.477000000     5.991000000
H    -2.215000000    -4.148000000     5.175000000
H    -3.538000000    -4.431000000     5.854000000
O    -0.876000000    -5.387000000     0.901000000
H    -0.104000000    -5.789000000     1.299000000
H    -1.431000000    -5.147000000     1.643000000
O    -8.970000000    -6.242000000     1.013000000
H    -8.203000000    -5.676000000     1.099000000
H    -8.627000000    -7.056000000     0.644000000
O    -0.924000000    -5.617000000     3.683000000
H    -1.125000000    -5.800000000     4.600000000
H    -0.447000000    -6.390000000     3.383000000
O    -6.119000000    -5.862000000    -2.372000000
H    -6.411000000    -5.173000000    -2.968000000
H    -5.453000000    -5.442000000    -1.828000000
O    -5.250000000    -7.545000000     0.364000000
H    -6.084000000    -7.695000000    -0.081000000
H    -4.937000000    -6.712000000     0.011000000
O    -6.582000000    -0.927000000     5.724000000
H    -5.697000000    -1.051000000     5.380000000
H    -6.756000000     0.007000000     5.606000000
O    -8.091000000    -3.265000000     4.515000000
H    -8.093000000    -2.314000000     4.407000000
H    -7.164000000    -3.502000000     4.533000000
O    -9.922000000    -0.851000000     3.199000000
H    -9.443000000    -1.389000000     2.569000000
H    -9.336000000    -0.116000000     3.380000000
O    -6.630000000    -4.464000000     0.673000000
H    -5.819000000    -4.018000000     0.431000000
H    -6.404000000    -4.966000000     1.456000000
O    -5.663000000    -6.686000000     3.114000000
H    -5.945000000    -7.096000000     3.931000000
H    -5.757000000    -7.374000000     2.456000000
O    -5.507000000    -4.261000000     4.304000000
H    -5.602000000    -5.094000000     3.843000000
H    -4.999000000    -3.712000000     3.706000000
O    -8.379000000    -3.188000000    -1.453000000
H    -7.776000000    -3.471000000    -0.766000000
H    -8.204000000    -3.780000000    -2.185000000
O    -3.858000000    -5.294000000    -0.642000000
H    -4.045000000    -4.569000000    -0.046000000
H    -2.904000000    -5.302000000    -0.717000000
O    -8.605000000     1.815000000    -0.310000000
H    -9.266000000     1.866000000    -1.001000000
H    -8.503000000     0.878000000    -0.145000000
