218
-1459.88935
C    -1.212000000     2.617000000     3.945000000
H    -1.840000000     3.082000000     3.189000000
C     0.204000000     2.440000000     3.871000000
C     0.880000000     1.817000000     4.897000000
H     1.939000000     1.601000000     4.775000000
C     0.907000000     3.034000000     2.616000000
O     0.390000000     4.365000000     2.201000000
H     0.764000000     2.342000000     1.773000000
O     2.350000000     3.276000000     2.832000000
C     3.298000000     2.964000000     1.984000000
C     3.918000000     1.733000000     2.171000000
H     3.833000000     1.347000000     3.183000000
C     4.693000000     1.109000000     1.221000000
O     5.156000000    -0.210000000     1.402000000
C     4.615000000     1.726000000    -0.042000000
C     5.259000000     0.971000000    -1.241000000
H     5.683000000     1.736000000    -1.895000000
C     4.295000000     0.049000000    -1.931000000
C     3.740000000     0.485000000    -3.051000000
H     4.010000000     1.421000000    -3.532000000
H     6.180000000     0.459000000    -0.956000000
C     3.970000000     2.917000000    -0.296000000
H     3.881000000     3.314000000    -1.304000000
C     3.311000000     3.596000000     0.721000000
C     2.570000000     4.953000000     0.549000000
H     3.136000000     5.496000000    -0.211000000
H     2.453000000     5.476000000     1.500000000
C     1.176000000     4.753000000    -0.016000000
C     0.978000000     4.768000000    -1.365000000
H     1.802000000     5.085000000    -1.999000000
C     0.118000000     4.547000000     0.836000000
C    -1.154000000     4.320000000     0.286000000
H    -2.055000000     4.240000000     0.888000000
C    -1.388000000     4.257000000    -1.080000000
O    -2.609000000     3.944000000    -1.501000000
C    -2.831000000     2.606000000    -2.032000000
C    -4.143000000     1.978000000    -1.483000000
C    -4.835000000     1.051000000    -2.280000000
H    -4.438000000     0.859000000    -3.274000000
C    -4.647000000     2.341000000    -0.222000000
H    -4.205000000     3.189000000     0.296000000
O    -2.718000000     2.641000000    -3.439000000
H    -2.084000000     1.925000000    -1.599000000
C    -0.272000000     4.460000000    -1.967000000
C    -0.438000000     4.419000000    -3.518000000
H     0.330000000     5.032000000    -3.992000000
H    -1.401000000     4.845000000    -3.810000000
C    -0.446000000     2.950000000    -4.011000000
C     0.772000000     2.302000000    -4.407000000
H     1.718000000     2.830000000    -4.498000000
C    -1.560000000     2.118000000    -3.893000000
C    -1.558000000     0.789000000    -4.147000000
H    -2.437000000     0.169000000    -3.994000000
C    -0.359000000     0.249000000    -4.606000000
O    -0.339000000    -1.060000000    -4.748000000
C     0.123000000    -1.812000000    -3.563000000
C    -0.796000000    -2.879000000    -3.096000000
C    -2.124000000    -2.922000000    -3.559000000
H    -2.546000000    -2.215000000    -4.268000000
C    -0.225000000    -3.923000000    -2.355000000
H     0.819000000    -3.882000000    -2.053000000
O     1.451000000    -2.365000000    -3.820000000
H     0.269000000    -1.033000000    -2.800000000
C     0.764000000     0.958000000    -4.780000000
C     2.178000000     0.330000000    -5.034000000
H     2.866000000     1.023000000    -5.520000000
H     2.116000000    -0.542000000    -5.688000000
C     2.844000000    -0.277000000    -3.796000000
C     2.571000000    -1.615000000    -3.326000000
C     3.296000000    -2.102000000    -2.263000000
H     3.114000000    -3.132000000    -1.965000000
C     4.217000000    -1.307000000    -1.532000000
O     4.787000000    -1.775000000    -0.398000000
C     4.284000000    -1.284000000     0.851000000
H     3.362000000    -0.707000000     0.681000000
C     4.032000000    -2.475000000     1.807000000
C     4.015000000    -2.250000000     3.203000000
H     4.299000000    -1.276000000     3.596000000
C     3.785000000    -3.759000000     1.394000000
H     3.729000000    -3.847000000     0.312000000
C     3.311000000    -4.726000000     2.240000000
O     3.073000000    -6.015000000     1.784000000
C     3.296000000    -4.474000000     3.625000000
H     3.076000000    -5.333000000     4.253000000
C     3.622000000    -3.240000000     4.130000000
O     3.514000000    -2.958000000     5.517000000
C     3.386000000    -1.692000000     6.057000000
C     2.180000000    -1.118000000     6.301000000
H     1.279000000    -1.703000000     6.138000000
C     4.576000000    -0.993000000     6.260000000
H     5.543000000    -1.490000000     6.237000000
C     4.511000000     0.267000000     6.807000000
H     5.431000000     0.819000000     6.982000000
C     3.290000000     0.787000000     7.175000000
H     3.289000000     1.793000000     7.588000000
C     2.122000000     0.129000000     6.923000000
O     0.876000000     0.727000000     7.107000000
C     0.242000000     1.265000000     6.054000000
C    -1.113000000     1.402000000     6.058000000
H    -1.657000000     1.048000000     6.930000000
C    -1.888000000     1.976000000     5.004000000
O    -3.259000000     1.928000000     5.103000000
C    -4.141000000     2.627000000     4.272000000
C    -4.835000000     1.934000000     3.300000000
H    -4.695000000     0.859000000     3.217000000
C    -4.127000000     4.008000000     4.332000000
H    -3.503000000     4.543000000     5.044000000
C    -4.879000000     4.790000000     3.520000000
H    -5.025000000     5.859000000     3.655000000
C    -5.642000000     4.076000000     2.558000000
H    -6.271000000     4.654000000     1.886000000
C    -5.645000000     2.647000000     2.425000000
O    -6.371000000     2.023000000     1.477000000
C    -5.785000000     1.750000000     0.245000000
C    -6.465000000     0.766000000    -0.508000000
H    -7.304000000     0.204000000    -0.105000000
C    -6.021000000     0.526000000    -1.770000000
O    -6.735000000    -0.462000000    -2.532000000
C    -6.260000000    -1.239000000    -3.558000000
C    -5.330000000    -2.139000000    -3.239000000
H    -4.971000000    -2.179000000    -2.213000000
C    -6.872000000    -1.287000000    -4.833000000
H    -7.653000000    -0.557000000    -5.033000000
C    -6.488000000    -2.209000000    -5.796000000
H    -6.911000000    -2.255000000    -6.796000000
C    -5.525000000    -3.189000000    -5.406000000
H    -5.152000000    -3.855000000    -6.180000000
C    -4.951000000    -3.166000000    -4.117000000
O    -4.113000000    -4.254000000    -3.769000000
C    -2.883000000    -4.077000000    -3.257000000
C    -2.368000000    -5.048000000    -2.427000000
H    -2.847000000    -6.013000000    -2.276000000
C    -1.057000000    -5.032000000    -2.050000000
O    -0.731000000    -5.982000000    -1.167000000
C     0.605000000    -6.200000000    -0.887000000
C     1.318000000    -6.867000000    -1.880000000
H     0.963000000    -7.043000000    -2.892000000
C     2.607000000    -7.338000000    -1.545000000
H     3.187000000    -7.912000000    -2.262000000
C     3.184000000    -7.076000000    -0.296000000
H     4.223000000    -7.391000000    -0.244000000
C     2.456000000    -6.310000000     0.585000000
C     1.154000000    -5.930000000     0.373000000
H     0.607000000    -5.326000000     1.092000000
C    -1.937000000    -0.058000000     1.518000000
H    -2.724000000     0.460000000     2.059000000
C    -1.102000000     0.654000000     0.654000000
H    -1.207000000     1.735000000     0.608000000
C     0.067000000     0.108000000     0.063000000
C     0.976000000     1.009000000    -0.760000000
H     0.391000000     1.710000000    -1.359000000
H     1.512000000     1.653000000    -0.060000000
H     1.748000000     0.458000000    -1.301000000
C     0.330000000    -1.267000000     0.297000000
H     1.113000000    -1.861000000    -0.168000000
C    -0.439000000    -1.977000000     1.185000000
H    -0.191000000    -3.014000000     1.397000000
C    -1.567000000    -1.408000000     1.736000000
C    -2.511000000    -2.187000000     2.691000000
O    -2.031000000    -2.971000000     3.481000000
O    -3.739000000    -2.030000000     2.707000000
O    -0.901000000    -5.946000000     8.091000000
H    -0.067000000    -5.501000000     8.244000000
H    -1.160000000    -5.674000000     7.211000000
O    -6.324000000    -0.863000000     7.174000000
H    -5.739000000    -0.113000000     7.283000000
H    -5.929000000    -1.374000000     6.468000000
O     0.343000000    -3.745000000     4.064000000
H     0.717000000    -2.994000000     4.524000000
H    -0.589000000    -3.540000000     3.989000000
O    -5.468000000    -4.147000000     2.682000000
H    -4.871000000    -3.446000000     2.418000000
H    -6.016000000    -3.752000000     3.360000000
O    -5.105000000    -2.219000000     5.141000000
H    -4.540000000    -2.801000000     5.651000000
H    -4.690000000    -2.176000000     4.280000000
O     0.567000000    -6.484000000     4.473000000
H     0.326000000    -5.565000000     4.357000000
H     0.160000000    -6.934000000     3.732000000
O    -1.179000000    -7.494000000     2.431000000
H    -1.325000000    -7.781000000     1.529000000
H    -1.856000000    -6.836000000     2.586000000
O    -7.794000000    -5.065000000     1.118000000
H    -8.105000000    -4.468000000     0.438000000
H    -7.107000000    -4.576000000     1.570000000
O    -6.232000000    -6.192000000    -1.119000000
H    -5.563000000    -6.105000000    -0.441000000
H    -7.055000000    -6.265000000    -0.636000000
O    -4.987000000     1.306000000     7.385000000
H    -4.966000000     1.977000000     8.068000000
H    -4.470000000     1.677000000     6.670000000
O    -7.971000000     2.261000000     4.704000000
H    -7.994000000     2.003000000     3.782000000
H    -7.141000000     1.913000000     5.029000000
O    -2.072000000    -2.230000000     5.992000000
H    -1.901000000    -2.279000000     5.052000000
H    -2.501000000    -3.060000000     6.201000000
O    -5.109000000    -2.339000000     0.593000000
H    -4.772000000    -1.917000000     1.383000000
H    -4.396000000    -2.907000000     0.302000000
O    -2.766000000    -5.418000000     3.347000000
H    -2.452000000    -4.514000000     3.360000000
H    -3.670000000    -5.363000000     3.656000000
O    -7.476000000    -3.275000000     5.202000000
H    -6.638000000    -2.825000000     5.308000000
H    -8.134000000    -2.600000000     5.369000000
O    -2.654000000    -6.676000000     5.749000000
H    -2.540000000    -6.352000000     4.856000000
H    -1.926000000    -7.284000000     5.878000000
O    -4.384000000    -5.625000000     0.751000000
H    -4.756000000    -5.106000000     1.464000000
H    -4.489000000    -6.533000000     1.035000000
O    -1.982000000    -1.510000000     9.019000000
H    -1.547000000    -1.688000000     8.185000000
H    -2.898000000    -1.739000000     8.865000000
O    -3.710000000    -4.304000000     6.407000000
H    -4.172000000    -4.255000000     7.244000000
H    -3.487000000    -5.230000000     6.309000000
