218
-1484.48242
C    -1.063000000     2.703000000     4.028000000
H    -1.633000000     3.036000000     3.164000000
C     0.318000000     2.677000000     4.004000000
C     1.005000000     2.120000000     5.122000000
H     2.090000000     2.085000000     5.172000000
C     1.099000000     3.099000000     2.785000000
O     0.612000000     4.368000000     2.299000000
H     0.892000000     2.339000000     2.017000000
O     2.529000000     3.156000000     2.998000000
C     3.415000000     2.773000000     1.989000000
C     4.026000000     1.521000000     2.167000000
H     3.794000000     0.952000000     3.064000000
C     4.583000000     0.909000000     1.070000000
O     4.968000000    -0.394000000     1.261000000
C     4.740000000     1.553000000    -0.128000000
C     5.522000000     0.859000000    -1.290000000
H     5.880000000     1.696000000    -1.892000000
C     4.463000000     0.057000000    -2.084000000
C     3.842000000     0.598000000    -3.178000000
H     4.120000000     1.610000000    -3.461000000
H     6.362000000     0.205000000    -1.044000000
C     4.219000000     2.826000000    -0.283000000
H     4.359000000     3.391000000    -1.201000000
C     3.459000000     3.373000000     0.753000000
C     2.785000000     4.689000000     0.530000000
H     3.372000000     5.230000000    -0.215000000
H     2.763000000     5.231000000     1.478000000
C     1.322000000     4.635000000     0.007000000
C     0.971000000     4.677000000    -1.316000000
H     1.758000000     4.930000000    -2.022000000
C     0.356000000     4.426000000     0.969000000
C    -0.960000000     4.285000000     0.469000000
H    -1.749000000     4.100000000     1.193000000
C    -1.338000000     4.290000000    -0.880000000
O    -2.663000000     4.046000000    -1.264000000
C    -2.991000000     2.788000000    -1.937000000
C    -4.280000000     2.329000000    -1.504000000
C    -5.069000000     1.532000000    -2.383000000
H    -4.702000000     1.245000000    -3.365000000
C    -4.660000000     2.366000000    -0.180000000
H    -4.166000000     3.028000000     0.527000000
O    -2.833000000     2.920000000    -3.396000000
H    -2.226000000     2.098000000    -1.553000000
C    -0.293000000     4.504000000    -1.841000000
C    -0.552000000     4.545000000    -3.373000000
H     0.288000000     5.105000000    -3.790000000
H    -1.496000000     5.058000000    -3.565000000
C    -0.499000000     3.058000000    -3.891000000
C     0.685000000     2.434000000    -4.354000000
H     1.595000000     3.020000000    -4.255000000
C    -1.687000000     2.303000000    -3.863000000
C    -1.660000000     0.980000000    -4.267000000
H    -2.575000000     0.400000000    -4.354000000
C    -0.428000000     0.366000000    -4.513000000
O    -0.426000000    -1.042000000    -4.693000000
C     0.137000000    -1.715000000    -3.573000000
C    -0.738000000    -2.908000000    -3.200000000
C    -2.081000000    -2.719000000    -3.010000000
H    -2.597000000    -1.804000000    -3.289000000
C    -0.171000000    -4.105000000    -2.780000000
H     0.910000000    -4.219000000    -2.790000000
O     1.504000000    -2.128000000    -3.936000000
H     0.165000000    -1.001000000    -2.738000000
C     0.759000000     1.128000000    -4.650000000
C     2.036000000     0.450000000    -4.985000000
H     2.722000000     1.043000000    -5.593000000
H     1.744000000    -0.357000000    -5.661000000
C     2.806000000    -0.084000000    -3.762000000
C     2.530000000    -1.377000000    -3.395000000
C     3.184000000    -1.997000000    -2.401000000
H     2.841000000    -3.002000000    -2.167000000
C     4.134000000    -1.263000000    -1.745000000
O     4.643000000    -1.834000000    -0.592000000
C     4.114000000    -1.406000000     0.632000000
H     3.102000000    -1.006000000     0.477000000
C     3.770000000    -2.554000000     1.558000000
C     3.333000000    -2.340000000     2.899000000
H     3.251000000    -1.360000000     3.362000000
C     3.785000000    -3.891000000     1.119000000
H     4.117000000    -4.080000000     0.102000000
C     3.209000000    -4.964000000     1.810000000
O     3.184000000    -6.239000000     1.351000000
C     2.719000000    -4.699000000     3.072000000
H     2.337000000    -5.476000000     3.730000000
C     2.813000000    -3.395000000     3.638000000
O     2.406000000    -3.164000000     4.947000000
C     2.703000000    -2.036000000     5.785000000
C     1.739000000    -1.037000000     5.965000000
H     0.732000000    -1.164000000     5.576000000
C     3.922000000    -1.966000000     6.443000000
H     4.697000000    -2.699000000     6.232000000
C     4.149000000    -0.866000000     7.233000000
H     5.123000000    -0.727000000     7.696000000
C     3.183000000     0.057000000     7.493000000
H     3.432000000     0.867000000     8.174000000
C     1.926000000    -0.023000000     6.872000000
O     0.912000000     0.850000000     7.208000000
C     0.284000000     1.611000000     6.231000000
C    -1.079000000     1.657000000     6.199000000
H    -1.609000000     1.369000000     7.103000000
C    -1.787000000     2.200000000     5.129000000
O    -3.181000000     2.182000000     5.242000000
C    -3.951000000     2.757000000     4.300000000
C    -4.840000000     1.953000000     3.557000000
H    -4.710000000     0.892000000     3.755000000
C    -4.039000000     4.113000000     4.239000000
H    -3.450000000     4.744000000     4.899000000
C    -4.911000000     4.722000000     3.315000000
H    -4.957000000     5.808000000     3.300000000
C    -5.713000000     3.910000000     2.462000000
H    -6.422000000     4.458000000     1.845000000
C    -5.585000000     2.539000000     2.565000000
O    -6.238000000     1.788000000     1.629000000
C    -5.849000000     1.817000000     0.261000000
C    -6.694000000     1.228000000    -0.637000000
H    -7.572000000     0.704000000    -0.269000000
C    -6.378000000     1.072000000    -2.010000000
O    -7.112000000     0.132000000    -2.784000000
C    -6.373000000    -0.856000000    -3.395000000
C    -5.706000000    -1.805000000    -2.606000000
H    -5.624000000    -1.719000000    -1.525000000
C    -6.357000000    -1.043000000    -4.795000000
H    -7.035000000    -0.456000000    -5.411000000
C    -5.529000000    -2.008000000    -5.415000000
H    -5.464000000    -2.146000000    -6.491000000
C    -4.892000000    -2.980000000    -4.626000000
H    -4.384000000    -3.811000000    -5.110000000
C    -4.923000000    -2.816000000    -3.201000000
O    -4.174000000    -3.675000000    -2.319000000
C    -2.818000000    -3.768000000    -2.401000000
C    -2.260000000    -4.941000000    -2.021000000
H    -2.855000000    -5.724000000    -1.558000000
C    -0.914000000    -5.104000000    -2.185000000
O    -0.435000000    -6.343000000    -1.870000000
C     0.904000000    -6.556000000    -1.566000000
C     1.802000000    -6.997000000    -2.561000000
H     1.369000000    -7.060000000    -3.557000000
C     3.166000000    -7.192000000    -2.226000000
H     3.885000000    -7.404000000    -3.014000000
C     3.584000000    -7.007000000    -0.920000000
H     4.632000000    -7.087000000    -0.642000000
C     2.751000000    -6.517000000     0.050000000
C     1.371000000    -6.433000000    -0.261000000
H     0.644000000    -6.112000000     0.481000000
C    -1.991000000    -0.110000000     1.964000000
H    -2.768000000     0.399000000     2.529000000
C    -1.205000000     0.663000000     1.119000000
H    -1.431000000     1.714000000     0.956000000
C    -0.231000000     0.079000000     0.351000000
C     0.504000000     0.963000000    -0.643000000
H     1.157000000     0.282000000    -1.193000000
H    -0.213000000     1.407000000    -1.338000000
H     1.010000000     1.750000000    -0.080000000
C     0.049000000    -1.253000000     0.464000000
H     0.832000000    -1.706000000    -0.139000000
C    -0.713000000    -2.046000000     1.331000000
H    -0.447000000    -3.089000000     1.482000000
C    -1.740000000    -1.494000000     2.083000000
C    -2.525000000    -2.313000000     3.045000000
O    -2.258000000    -3.482000000     3.231000000
O    -3.492000000    -1.838000000     3.579000000
O     1.290000000    -5.360000000     6.186000000
H     1.352000000    -4.637000000     5.562000000
H     2.152000000    -5.392000000     6.602000000
O    -5.084000000    -7.177000000     2.088000000
H    -5.983000000    -6.933000000     1.866000000
H    -4.553000000    -6.447000000     1.772000000
O    -8.201000000    -1.557000000     4.384000000
H    -7.561000000    -2.185000000     4.719000000
H    -8.578000000    -1.986000000     3.616000000
O    -5.518000000    -3.235000000     4.749000000
H    -4.826000000    -2.872000000     4.195000000
H    -5.663000000    -2.567000000     5.419000000
O    -3.553000000    -0.575000000     5.996000000
H    -3.416000000     0.359000000     5.840000000
H    -3.422000000    -0.983000000     5.140000000
O     0.867000000    -7.652000000     4.788000000
H     0.975000000    -7.431000000     5.713000000
H     0.157000000    -7.086000000     4.488000000
O    -5.828000000    -7.332000000     4.881000000
H    -5.429000000    -7.026000000     4.067000000
H    -5.088000000    -7.484000000     5.468000000
O    -0.716000000    -5.996000000     3.394000000
H    -1.624000000    -5.970000000     3.697000000
H    -0.538000000    -5.105000000     3.094000000
O    -7.018000000    -3.439000000     1.534000000
H    -6.653000000    -2.590000000     1.781000000
H    -7.966000000    -3.313000000     1.573000000
O    -1.510000000    -2.447000000     8.823000000
H    -1.664000000    -2.747000000     7.927000000
H    -1.904000000    -3.124000000     9.373000000
O    -7.663000000    -5.200000000     4.940000000
H    -6.989000000    -4.602000000     4.617000000
H    -7.200000000    -6.023000000     5.095000000
O    -1.696000000    -3.139000000     6.184000000
H    -1.584000000    -3.031000000     5.240000000
H    -2.528000000    -3.604000000     6.275000000
O    -5.735000000    -0.998000000     2.083000000
H    -4.999000000    -1.147000000     2.676000000
H    -6.009000000    -0.098000000     2.262000000
O    -3.806000000    -4.537000000     1.068000000
H    -2.865000000    -4.646000000     1.203000000
H    -4.093000000    -3.996000000     1.803000000
O    -5.941000000    -1.515000000     6.721000000
H    -5.095000000    -1.158000000     6.450000000
H    -5.852000000    -1.650000000     7.665000000
O    -3.354000000    -5.714000000     4.665000000
H    -3.070000000    -4.875000000     4.303000000
H    -3.593000000    -5.517000000     5.570000000
O    -5.928000000    -4.949000000    -0.554000000
H    -5.126000000    -5.093000000    -0.052000000
H    -6.470000000    -4.401000000     0.013000000
O    -3.289000000    -0.177000000     8.723000000
H    -2.983000000    -0.944000000     9.207000000
H    -3.178000000    -0.415000000     7.803000000
O    -4.104000000    -4.520000000     7.074000000
H    -3.948000000    -4.531000000     8.019000000
H    -4.963000000    -4.109000000     6.978000000
