218
-1482.42177
C    -1.982000000     3.101000000     3.834000000
H    -2.358000000     3.798000000     3.090000000
C    -0.631000000     2.712000000     3.935000000
C    -0.240000000     1.838000000     4.917000000
H     0.778000000     1.456000000     4.931000000
C     0.408000000     3.154000000     2.943000000
O     0.127000000     4.427000000     2.405000000
H     0.533000000     2.472000000     2.089000000
O     1.756000000     3.246000000     3.539000000
C     2.709000000     2.717000000     2.713000000
C     3.166000000     1.438000000     2.962000000
H     2.797000000     0.893000000     3.827000000
C     4.044000000     0.774000000     2.121000000
O     4.460000000    -0.549000000     2.369000000
C     4.537000000     1.450000000     1.033000000
C     5.486000000     0.755000000     0.036000000
H     6.219000000     1.469000000    -0.346000000
C     4.751000000    -0.032000000    -1.059000000
C     4.366000000     0.596000000    -2.229000000
H     4.449000000     1.666000000    -2.403000000
H     6.130000000     0.018000000     0.520000000
C     4.112000000     2.741000000     0.764000000
H     4.398000000     3.252000000    -0.152000000
C     3.151000000     3.371000000     1.578000000
C     2.701000000     4.832000000     1.199000000
H     3.491000000     5.297000000     0.605000000
H     2.496000000     5.495000000     2.043000000
C     1.440000000     4.757000000     0.397000000
C     1.464000000     4.928000000    -1.009000000
H     2.423000000     5.117000000    -1.485000000
C     0.234000000     4.631000000     1.055000000
C    -1.019000000     4.615000000     0.342000000
H    -1.912000000     4.535000000     0.956000000
C    -0.925000000     4.553000000    -1.058000000
O    -2.124000000     4.252000000    -1.673000000
C    -2.211000000     2.877000000    -2.209000000
C    -3.648000000     2.236000000    -2.037000000
C    -4.264000000     1.504000000    -3.039000000
H    -3.874000000     1.607000000    -4.048000000
C    -4.272000000     2.373000000    -0.797000000
H    -3.818000000     2.889000000     0.044000000
O    -1.891000000     2.892000000    -3.633000000
H    -1.435000000     2.241000000    -1.759000000
C     0.266000000     4.703000000    -1.743000000
C     0.266000000     4.658000000    -3.303000000
H     1.154000000     5.194000000    -3.645000000
H    -0.539000000     5.242000000    -3.755000000
C     0.414000000     3.196000000    -3.813000000
C     1.685000000     2.584000000    -3.932000000
H     2.570000000     3.205000000    -3.821000000
C    -0.753000000     2.394000000    -4.027000000
C    -0.643000000     1.065000000    -4.373000000
H    -1.524000000     0.437000000    -4.483000000
C     0.610000000     0.487000000    -4.432000000
O     0.718000000    -0.852000000    -4.659000000
C     1.032000000    -1.792000000    -3.608000000
C     0.191000000    -3.041000000    -3.493000000
C    -1.104000000    -2.843000000    -3.802000000
H    -1.521000000    -1.862000000    -4.016000000
C     0.755000000    -4.211000000    -3.000000000
H     1.757000000    -4.341000000    -2.599000000
O     2.406000000    -2.203000000    -3.673000000
H     0.931000000    -1.316000000    -2.621000000
C     1.753000000     1.258000000    -4.276000000
C     3.144000000     0.592000000    -4.491000000
H     3.860000000     1.347000000    -4.823000000
H     3.117000000    -0.102000000    -5.334000000
C     3.653000000    -0.138000000    -3.204000000
C     3.261000000    -1.451000000    -2.896000000
C     3.630000000    -2.096000000    -1.715000000
H     3.234000000    -3.086000000    -1.505000000
C     4.403000000    -1.380000000    -0.816000000
O     4.670000000    -1.920000000     0.447000000
C     3.748000000    -1.511000000     1.526000000
H     2.918000000    -1.061000000     0.961000000
C     3.242000000    -2.695000000     2.299000000
C     2.782000000    -2.483000000     3.655000000
H     3.012000000    -1.520000000     4.104000000
C     3.093000000    -3.974000000     1.717000000
H     3.328000000    -4.129000000     0.668000000
C     2.390000000    -4.968000000     2.396000000
O     2.086000000    -6.252000000     1.823000000
C     1.962000000    -4.717000000     3.667000000
H     1.331000000    -5.427000000     4.195000000
C     2.103000000    -3.495000000     4.268000000
O     2.134000000    -3.446000000     5.696000000
C     1.782000000    -2.371000000     6.438000000
C     0.599000000    -1.647000000     6.148000000
H    -0.066000000    -2.000000000     5.363000000
C     2.594000000    -1.869000000     7.431000000
H     3.541000000    -2.346000000     7.670000000
C     2.278000000    -0.700000000     8.140000000
H     2.943000000    -0.300000000     8.901000000
C     1.137000000     0.035000000     7.757000000
H     0.843000000     0.935000000     8.291000000
C     0.237000000    -0.461000000     6.791000000
O    -0.936000000     0.240000000     6.664000000
C    -1.217000000     1.277000000     5.845000000
C    -2.532000000     1.688000000     5.779000000
H    -3.246000000     1.264000000     6.480000000
C    -2.897000000     2.590000000     4.777000000
O    -4.266000000     2.980000000     4.763000000
C    -4.975000000     3.288000000     3.662000000
C    -5.140000000     2.396000000     2.639000000
H    -4.721000000     1.408000000     2.815000000
C    -5.507000000     4.513000000     3.492000000
H    -5.324000000     5.150000000     4.353000000
C    -6.287000000     4.883000000     2.383000000
H    -6.677000000     5.898000000     2.353000000
C    -6.402000000     3.977000000     1.399000000
H    -6.988000000     4.161000000     0.502000000
C    -5.919000000     2.682000000     1.542000000
O    -6.103000000     1.752000000     0.611000000
C    -5.515000000     1.726000000    -0.585000000
C    -6.135000000     0.992000000    -1.613000000
H    -7.056000000     0.467000000    -1.372000000
C    -5.444000000     0.842000000    -2.809000000
O    -5.872000000     0.079000000    -3.869000000
C    -5.171000000    -0.673000000    -4.662000000
C    -4.391000000    -1.719000000    -4.117000000
H    -4.267000000    -1.890000000    -3.051000000
C    -5.309000000    -0.570000000    -6.018000000
H    -5.990000000     0.177000000    -6.419000000
C    -4.741000000    -1.575000000    -6.852000000
H    -4.944000000    -1.464000000    -7.914000000
C    -3.947000000    -2.580000000    -6.330000000
H    -3.482000000    -3.358000000    -6.931000000
C    -3.796000000    -2.631000000    -4.974000000
O    -3.313000000    -3.782000000    -4.342000000
C    -2.001000000    -3.907000000    -3.850000000
C    -1.462000000    -5.146000000    -3.383000000
H    -2.096000000    -6.028000000    -3.374000000
C    -0.116000000    -5.307000000    -2.957000000
O     0.266000000    -6.575000000    -2.555000000
C     1.317000000    -6.750000000    -1.665000000
C     2.301000000    -7.715000000    -2.003000000
H     2.358000000    -8.318000000    -2.905000000
C     3.329000000    -7.942000000    -1.074000000
H     4.123000000    -8.641000000    -1.322000000
C     3.315000000    -7.326000000     0.161000000
H     4.028000000    -7.566000000     0.945000000
C     2.226000000    -6.547000000     0.459000000
C     1.188000000    -6.316000000    -0.420000000
H     0.286000000    -5.845000000    -0.038000000
C    -2.051000000     0.234000000     1.766000000
H    -2.808000000     0.937000000     2.104000000
C    -1.098000000     0.729000000     0.878000000
H    -1.187000000     1.738000000     0.482000000
C    -0.108000000    -0.089000000     0.366000000
C     0.641000000     0.349000000    -0.823000000
H    -0.083000000     0.129000000    -1.610000000
H     0.797000000     1.425000000    -0.921000000
H     1.613000000    -0.110000000    -1.018000000
C    -0.002000000    -1.358000000     0.893000000
H     0.798000000    -2.054000000     0.659000000
C    -0.985000000    -1.847000000     1.812000000
H    -0.940000000    -2.813000000     2.307000000
C    -1.988000000    -1.044000000     2.283000000
C    -3.065000000    -1.521000000     3.123000000
O    -2.878000000    -2.538000000     3.849000000
O    -4.135000000    -1.018000000     3.028000000
O    -1.868000000    -4.570000000     7.407000000
H    -2.206000000    -3.680000000     7.306000000
H    -1.626000000    -4.837000000     6.521000000
O    -5.520000000    -3.441000000     3.617000000
H    -5.874000000    -3.520000000     2.731000000
H    -4.616000000    -3.154000000     3.489000000
O    -8.500000000     1.103000000     4.371000000
H    -8.463000000     0.160000000     4.528000000
H    -8.893000000     1.187000000     3.502000000
O    -6.390000000    -0.722000000     1.858000000
H    -5.652000000    -0.768000000     2.466000000
H    -6.609000000     0.209000000     1.817000000
O    -5.105000000    -0.558000000     5.465000000
H    -5.736000000     0.140000000     5.641000000
H    -5.047000000    -0.594000000     4.511000000
O    -7.100000000    -2.703000000     5.805000000
H    -6.420000000    -2.889000000     5.158000000
H    -6.669000000    -2.146000000     6.453000000
O    -3.401000000    -6.377000000     1.109000000
H    -3.575000000    -5.790000000     0.374000000
H    -4.268000000    -6.649000000     1.410000000
O    -5.465000000    -1.835000000    -0.531000000
H    -5.356000000    -2.765000000    -0.334000000
H    -5.468000000    -1.408000000     0.326000000
O    -3.420000000    -2.428000000     6.576000000
H    -3.167000000    -2.518000000     5.657000000
H    -3.842000000    -1.570000000     6.625000000
O    -1.049000000    -5.791000000     2.105000000
H    -1.949000000    -5.933000000     1.813000000
H    -1.121000000    -5.675000000     3.053000000
O    -6.339000000    -0.945000000     8.094000000
H    -6.016000000    -1.566000000     8.747000000
H    -5.556000000    -0.482000000     7.796000000
O    -1.853000000    -4.935000000     4.661000000
H    -2.137000000    -4.115000000     4.257000000
H    -2.666000000    -5.369000000     4.919000000
O    -2.550000000    -2.073000000    -0.869000000
H    -3.459000000    -1.857000000    -0.660000000
H    -2.041000000    -1.677000000    -0.162000000
O    -4.221000000    -4.625000000    -0.538000000
H    -3.499000000    -4.011000000    -0.670000000
H    -4.384000000    -4.994000000    -1.406000000
O    -8.793000000    -1.729000000     4.032000000
H    -8.465000000    -1.701000000     3.134000000
H    -8.129000000    -2.222000000     4.515000000
O    -5.466000000    -6.147000000     4.621000000
H    -5.792000000    -5.265000000     4.442000000
H    -6.166000000    -6.564000000     5.124000000
O    -3.501000000     0.072000000     8.519000000
H    -3.373000000     0.090000000     9.468000000
H    -2.615000000     0.030000000     8.159000000
O    -7.683000000    -4.743000000     1.771000000
H    -7.666000000    -4.198000000     0.985000000
H    -8.576000000    -5.088000000     1.805000000
O    -5.188000000    -3.407000000     9.416000000
H    -4.788000000    -3.165000000     8.581000000
H    -4.446000000    -3.545000000    10.006000000
