218
-1462.86103
C    -2.408000000     2.806000000     4.224000000
H    -2.227000000     3.847000000     3.971000000
C    -1.325000000     2.048000000     4.065000000
C    -1.387000000     0.661000000     4.348000000
H    -0.511000000     0.045000000     4.163000000
C    -0.010000000     2.568000000     3.360000000
O    -0.029000000     3.938000000     3.081000000
H     0.027000000     2.052000000     2.389000000
O     1.201000000     2.337000000     4.149000000
C     2.348000000     1.987000000     3.426000000
C     2.559000000     0.623000000     3.384000000
H     1.867000000     0.011000000     3.956000000
C     3.590000000     0.064000000     2.685000000
O     3.762000000    -1.327000000     2.725000000
C     4.378000000     0.928000000     1.905000000
C     5.520000000     0.389000000     1.118000000
H     6.092000000     1.259000000     0.790000000
C     5.009000000    -0.249000000    -0.178000000
C     4.984000000     0.540000000    -1.346000000
H     5.325000000     1.572000000    -1.329000000
H     6.239000000    -0.253000000     1.631000000
C     4.110000000     2.272000000     1.787000000
H     4.701000000     2.907000000     1.131000000
C     3.069000000     2.808000000     2.551000000
C     2.904000000     4.314000000     2.424000000
H     3.822000000     4.866000000     2.211000000
H     2.624000000     4.602000000     3.440000000
C     1.789000000     4.599000000     1.510000000
C     2.078000000     4.628000000     0.117000000
H     3.135000000     4.648000000    -0.136000000
C     0.419000000     4.337000000     1.820000000
C    -0.607000000     4.343000000     0.835000000
H    -1.646000000     4.177000000     1.110000000
C    -0.218000000     4.484000000    -0.544000000
O    -1.217000000     4.468000000    -1.465000000
C    -1.490000000     3.197000000    -2.176000000
C    -3.021000000     2.810000000    -2.113000000
C    -3.447000000     1.777000000    -2.932000000
H    -2.746000000     1.322000000    -3.627000000
C    -3.874000000     3.514000000    -1.320000000
H    -3.539000000     4.312000000    -0.661000000
O    -0.918000000     3.397000000    -3.493000000
H    -0.900000000     2.415000000    -1.676000000
C     1.080000000     4.699000000    -0.875000000
C     1.495000000     4.933000000    -2.348000000
H     2.491000000     5.379000000    -2.390000000
H     0.805000000     5.641000000    -2.811000000
C     1.502000000     3.608000000    -3.158000000
C     2.713000000     2.918000000    -3.172000000
H     3.549000000     3.513000000    -2.815000000
C     0.377000000     2.935000000    -3.658000000
C     0.591000000     1.715000000    -4.249000000
H    -0.296000000     1.179000000    -4.578000000
C     1.826000000     1.080000000    -4.311000000
O     1.836000000    -0.227000000    -4.664000000
C     1.791000000    -1.183000000    -3.554000000
C     0.579000000    -2.129000000    -3.718000000
C    -0.485000000    -2.001000000    -4.628000000
H    -0.515000000    -1.085000000    -5.213000000
C     0.552000000    -3.338000000    -2.993000000
H     1.351000000    -3.450000000    -2.263000000
O     3.127000000    -1.707000000    -3.551000000
H     1.726000000    -0.641000000    -2.599000000
C     2.955000000     1.666000000    -3.798000000
C     4.272000000     0.891000000    -3.737000000
H     5.078000000     1.618000000    -3.621000000
H     4.431000000     0.376000000    -4.687000000
C     4.458000000     0.026000000    -2.535000000
C     3.893000000    -1.277000000    -2.535000000
C     4.122000000    -2.097000000    -1.431000000
H     3.650000000    -3.064000000    -1.283000000
C     4.669000000    -1.637000000    -0.244000000
O     4.635000000    -2.493000000     0.828000000
C     3.393000000    -2.299000000     1.707000000
H     2.724000000    -1.798000000     0.991000000
C     2.693000000    -3.551000000     2.283000000
C     1.880000000    -3.511000000     3.411000000
H     1.643000000    -2.608000000     3.968000000
C     2.971000000    -4.745000000     1.575000000
H     3.651000000    -4.795000000     0.728000000
C     2.291000000    -5.869000000     1.979000000
O     2.455000000    -6.980000000     1.191000000
C     1.553000000    -5.904000000     3.155000000
H     1.027000000    -6.818000000     3.420000000
C     1.313000000    -4.727000000     3.805000000
O     0.489000000    -4.824000000     4.972000000
C     0.025000000    -3.715000000     5.607000000
C    -1.059000000    -3.004000000     5.008000000
H    -1.444000000    -3.317000000     4.041000000
C     0.461000000    -3.329000000     6.875000000
H     1.193000000    -3.974000000     7.354000000
C    -0.142000000    -2.302000000     7.561000000
H     0.167000000    -2.007000000     8.561000000
C    -1.165000000    -1.552000000     6.906000000
H    -1.831000000    -0.827000000     7.367000000
C    -1.560000000    -1.918000000     5.606000000
O    -2.630000000    -1.217000000     5.040000000
C    -2.599000000     0.132000000     4.749000000
C    -3.792000000     0.908000000     4.954000000
H    -4.740000000     0.421000000     5.166000000
C    -3.635000000     2.234000000     4.579000000
O    -4.759000000     3.013000000     4.532000000
C    -5.054000000     3.808000000     3.427000000
C    -5.504000000     3.204000000     2.214000000
H    -5.555000000     2.131000000     2.044000000
C    -4.879000000     5.150000000     3.471000000
H    -4.595000000     5.638000000     4.399000000
C    -5.145000000     5.905000000     2.349000000
H    -5.082000000     6.990000000     2.374000000
C    -5.546000000     5.314000000     1.144000000
H    -5.802000000     5.904000000     0.268000000
C    -5.664000000     3.980000000     1.052000000
O    -5.987000000     3.361000000    -0.191000000
C    -5.154000000     2.997000000    -1.180000000
C    -5.586000000     1.873000000    -1.864000000
H    -6.591000000     1.468000000    -1.786000000
C    -4.758000000     1.306000000    -2.777000000
O    -5.261000000     0.189000000    -3.420000000
C    -4.708000000    -0.310000000    -4.628000000
C    -4.027000000    -1.508000000    -4.642000000
H    -3.980000000    -2.129000000    -3.751000000
C    -4.753000000     0.416000000    -5.800000000
H    -5.213000000     1.400000000    -5.786000000
C    -4.087000000    -0.045000000    -6.935000000
H    -4.131000000     0.532000000    -7.855000000
C    -3.309000000    -1.156000000    -6.903000000
H    -2.662000000    -1.484000000    -7.713000000
C    -3.228000000    -1.792000000    -5.729000000
O    -2.474000000    -2.866000000    -5.738000000
C    -1.442000000    -3.024000000    -4.864000000
C    -1.435000000    -4.139000000    -4.041000000
H    -2.169000000    -4.930000000    -4.171000000
C    -0.451000000    -4.330000000    -3.105000000
O    -0.542000000    -5.323000000    -2.151000000
C     0.531000000    -6.041000000    -1.793000000
C     1.064000000    -6.955000000    -2.702000000
H     0.618000000    -7.062000000    -3.687000000
C     2.038000000    -7.855000000    -2.325000000
H     2.367000000    -8.566000000    -3.078000000
C     2.578000000    -7.892000000    -1.022000000
H     3.416000000    -8.442000000    -0.602000000
C     1.984000000    -7.008000000    -0.139000000
C     0.931000000    -6.119000000    -0.481000000
H     0.427000000    -5.608000000     0.336000000
C    -2.382000000    -0.688000000     1.173000000
H    -3.354000000    -0.354000000     1.528000000
C    -1.444000000     0.231000000     0.716000000
H    -1.652000000     1.298000000     0.679000000
C    -0.191000000    -0.255000000     0.256000000
C     0.889000000     0.742000000    -0.147000000
H     0.793000000     1.090000000    -1.177000000
H     0.972000000     1.600000000     0.524000000
H     1.903000000     0.340000000    -0.130000000
C     0.071000000    -1.629000000     0.290000000
H     0.992000000    -2.102000000    -0.040000000
C    -0.880000000    -2.552000000     0.717000000
H    -0.599000000    -3.592000000     0.572000000
C    -2.116000000    -2.051000000     1.150000000
C    -3.187000000    -2.984000000     1.632000000
O    -2.953000000    -4.163000000     1.828000000
O    -4.379000000    -2.543000000     1.691000000
O    -4.515000000    -6.137000000     0.925000000
H    -3.801000000    -6.593000000     0.478000000
H    -4.125000000    -5.315000000     1.222000000
O    -6.321000000    -1.366000000     0.435000000
H    -5.581000000    -1.827000000     0.831000000
H    -6.685000000    -0.841000000     1.148000000
O    -6.335000000    -3.873000000     2.608000000
H    -6.284000000    -4.517000000     1.901000000
H    -5.617000000    -3.265000000     2.431000000
O    -6.215000000    -5.462000000     5.278000000
H    -6.826000000    -5.211000000     4.585000000
H    -6.277000000    -4.755000000     5.920000000
O    -2.694000000    -8.794000000     2.451000000
H    -2.213000000    -7.967000000     2.428000000
H    -2.294000000    -9.284000000     3.169000000
O    -7.630000000    -3.015000000     4.926000000
H    -7.465000000    -3.016000000     3.983000000
H    -8.329000000    -3.657000000     5.048000000
O    -6.542000000    -3.744000000    -1.141000000
H    -7.482000000    -3.862000000    -1.008000000
H    -6.312000000    -2.998000000    -0.588000000
O    -7.764000000    -1.068000000    -2.275000000
H    -7.021000000    -0.630000000    -2.689000000
H    -7.395000000    -1.477000000    -1.492000000
O    -6.093000000    -7.921000000     3.260000000
H    -5.696000000    -8.669000000     2.812000000
H    -5.508000000    -7.188000000     3.066000000
O    -3.672000000    -5.070000000     4.429000000
H    -3.673000000    -4.671000000     3.559000000
H    -4.564000000    -5.397000000     4.544000000
O    -7.204000000     0.114000000     2.486000000
H    -7.847000000     0.824000000     2.467000000
H    -7.151000000    -0.136000000     3.408000000
O    -1.629000000    -6.321000000     2.563000000
H    -1.696000000    -6.342000000     3.518000000
H    -2.119000000    -5.541000000     2.305000000
O    -2.779000000    -3.081000000    -1.600000000
H    -3.247000000    -2.290000000    -1.334000000
H    -1.867000000    -2.909000000    -1.365000000
O    -4.345000000    -4.811000000    -2.576000000
H    -3.717000000    -4.230000000    -2.147000000
H    -5.199000000    -4.512000000    -2.265000000
O    -1.813000000    -7.141000000     5.263000000
H    -2.489000000    -6.482000000     5.425000000
H    -1.119000000    -6.930000000     5.887000000
O    -5.695000000    -1.634000000     6.162000000
H    -6.437000000    -2.135000000     5.822000000
H    -4.955000000    -2.240000000     6.113000000
O    -2.946000000    -3.622000000     8.299000000
H    -2.541000000    -3.097000000     8.989000000
H    -2.776000000    -3.132000000     7.494000000
O    -7.152000000    -6.393000000    -0.369000000
H    -7.298000000    -6.366000000    -1.315000000
H    -6.339000000    -5.905000000    -0.238000000
O    -3.339000000    -7.029000000    -1.612000000
H    -2.574000000    -7.028000000    -2.188000000
H    -3.894000000    -6.325000000    -1.950000000
