218
-1470.14807
C    -2.624000000     2.913000000     4.195000000
H    -2.962000000     3.668000000     3.490000000
C    -1.338000000     2.378000000     4.003000000
C    -0.907000000     1.435000000     4.927000000
H     0.134000000     1.157000000     5.071000000
C    -0.340000000     2.993000000     3.001000000
O    -0.778000000     4.299000000     2.650000000
H    -0.321000000     2.336000000     2.119000000
O     0.999000000     3.085000000     3.576000000
C     2.106000000     2.779000000     2.850000000
C     2.628000000     1.493000000     3.009000000
H     2.348000000     0.907000000     3.880000000
C     3.612000000     1.115000000     2.133000000
O     4.001000000    -0.201000000     2.231000000
C     4.247000000     1.982000000     1.211000000
C     5.312000000     1.630000000     0.251000000
H     5.748000000     2.573000000    -0.086000000
C     4.855000000     0.859000000    -0.984000000
C     4.481000000     1.554000000    -2.149000000
H     4.389000000     2.635000000    -2.085000000
H     6.069000000     1.148000000     0.874000000
C     3.652000000     3.199000000     1.023000000
H     3.999000000     3.885000000     0.254000000
C     2.518000000     3.583000000     1.786000000
C     1.817000000     4.963000000     1.472000000
H     2.521000000     5.584000000     0.914000000
H     1.403000000     5.471000000     2.345000000
C     0.546000000     4.788000000     0.656000000
C     0.619000000     4.747000000    -0.690000000
H     1.589000000     4.874000000    -1.164000000
C    -0.657000000     4.543000000     1.290000000
C    -1.762000000     4.308000000     0.478000000
H    -2.741000000     4.140000000     0.919000000
C    -1.724000000     4.406000000    -0.863000000
O    -2.765000000     3.970000000    -1.628000000
C    -2.710000000     2.600000000    -2.060000000
C    -3.988000000     1.911000000    -1.597000000
C    -4.261000000     0.630000000    -2.111000000
H    -3.547000000     0.235000000    -2.829000000
C    -4.877000000     2.421000000    -0.685000000
H    -4.808000000     3.446000000    -0.331000000
O    -2.306000000     2.382000000    -3.469000000
H    -1.961000000     2.103000000    -1.426000000
C    -0.516000000     4.600000000    -1.480000000
C    -0.518000000     4.694000000    -2.988000000
H     0.216000000     5.485000000    -3.156000000
H    -1.416000000     5.115000000    -3.446000000
C    -0.073000000     3.361000000    -3.548000000
C     1.279000000     3.135000000    -3.749000000
H     2.034000000     3.901000000    -3.590000000
C    -0.984000000     2.316000000    -3.715000000
C    -0.539000000     1.148000000    -4.240000000
H    -1.283000000     0.388000000    -4.466000000
C     0.844000000     0.886000000    -4.522000000
O     1.167000000    -0.389000000    -4.899000000
C     1.792000000    -1.254000000    -3.941000000
C     1.193000000    -2.681000000    -4.020000000
C    -0.140000000    -2.913000000    -3.642000000
H    -0.793000000    -2.083000000    -3.386000000
C     2.072000000    -3.766000000    -4.115000000
H     3.144000000    -3.589000000    -4.111000000
O     3.181000000    -1.246000000    -4.132000000
H     1.565000000    -0.831000000    -2.951000000
C     1.736000000     1.870000000    -4.140000000
C     3.238000000     1.644000000    -4.328000000
H     3.784000000     2.556000000    -4.582000000
H     3.234000000     1.021000000    -5.224000000
C     3.927000000     0.850000000    -3.189000000
C     3.912000000    -0.556000000    -3.179000000
C     4.351000000    -1.233000000    -2.075000000
H     4.343000000    -2.315000000    -1.964000000
C     4.720000000    -0.519000000    -0.923000000
O     4.861000000    -1.263000000     0.207000000
C     3.715000000    -1.004000000     1.092000000
H     2.946000000    -0.439000000     0.545000000
C     3.086000000    -2.308000000     1.621000000
C     2.009000000    -2.298000000     2.503000000
H     1.543000000    -1.380000000     2.851000000
C     3.559000000    -3.541000000     1.171000000
H     4.333000000    -3.627000000     0.413000000
C     2.912000000    -4.730000000     1.543000000
O     3.280000000    -5.963000000     1.141000000
C     1.849000000    -4.723000000     2.427000000
H     1.293000000    -5.603000000     2.742000000
C     1.364000000    -3.484000000     2.861000000
O     0.278000000    -3.387000000     3.688000000
C     0.408000000    -2.752000000     4.879000000
C    -0.572000000    -1.776000000     5.206000000
H    -1.369000000    -1.692000000     4.471000000
C     1.600000000    -2.765000000     5.671000000
H     2.467000000    -3.360000000     5.395000000
C     1.659000000    -1.942000000     6.773000000
H     2.593000000    -1.890000000     7.327000000
C     0.686000000    -1.077000000     7.142000000
H     0.743000000    -0.289000000     7.888000000
C    -0.446000000    -0.953000000     6.366000000
O    -1.418000000    -0.063000000     6.723000000
C    -1.783000000     0.955000000     5.907000000
C    -3.046000000     1.471000000     6.089000000
H    -3.690000000     1.007000000     6.832000000
C    -3.538000000     2.330000000     5.089000000
O    -4.861000000     2.694000000     5.161000000
C    -5.517000000     3.238000000     4.126000000
C    -5.837000000     2.396000000     3.037000000
H    -5.701000000     1.320000000     3.117000000
C    -5.682000000     4.636000000     3.995000000
H    -5.356000000     5.249000000     4.831000000
C    -6.140000000     5.150000000     2.794000000
H    -6.240000000     6.223000000     2.656000000
C    -6.495000000     4.293000000     1.760000000
H    -6.956000000     4.646000000     0.841000000
C    -6.335000000     2.903000000     1.854000000
O    -6.755000000     2.058000000     0.781000000
C    -5.885000000     1.609000000    -0.225000000
C    -6.211000000     0.373000000    -0.727000000
H    -6.899000000    -0.263000000    -0.176000000
C    -5.368000000    -0.073000000    -1.732000000
O    -5.453000000    -1.378000000    -2.161000000
C    -4.678000000    -1.963000000    -3.100000000
C    -3.657000000    -2.753000000    -2.685000000
H    -3.444000000    -2.887000000    -1.628000000
C    -4.837000000    -1.773000000    -4.432000000
H    -5.585000000    -1.063000000    -4.774000000
C    -4.122000000    -2.483000000    -5.373000000
H    -4.332000000    -2.441000000    -6.438000000
C    -3.120000000    -3.377000000    -4.982000000
H    -2.576000000    -4.035000000    -5.655000000
C    -2.909000000    -3.471000000    -3.602000000
O    -1.929000000    -4.321000000    -3.215000000
C    -0.663000000    -4.186000000    -3.621000000
C     0.246000000    -5.332000000    -3.729000000
H    -0.123000000    -6.351000000    -3.645000000
C     1.609000000    -5.048000000    -3.911000000
O     2.635000000    -6.028000000    -3.777000000
C     3.330000000    -6.382000000    -2.609000000
C     4.264000000    -7.421000000    -2.708000000
H     4.604000000    -7.826000000    -3.658000000
C     4.749000000    -8.022000000    -1.543000000
H     5.451000000    -8.850000000    -1.600000000
C     4.379000000    -7.563000000    -0.301000000
H     4.783000000    -8.096000000     0.556000000
C     3.548000000    -6.396000000    -0.168000000
C     2.894000000    -5.917000000    -1.332000000
H     2.230000000    -5.060000000    -1.249000000
C    -2.296000000    -1.114000000     0.819000000
H    -3.343000000    -0.954000000     1.064000000
C    -1.433000000    -0.086000000     0.458000000
H    -1.835000000     0.917000000     0.578000000
C    -0.160000000    -0.371000000    -0.079000000
C     0.812000000     0.728000000    -0.492000000
H     0.460000000     1.454000000    -1.229000000
H     1.147000000     1.274000000     0.392000000
H     1.669000000     0.274000000    -0.994000000
C     0.241000000    -1.676000000    -0.264000000
H     1.103000000    -1.932000000    -0.874000000
C    -0.658000000    -2.707000000     0.142000000
H    -0.293000000    -3.726000000     0.036000000
C    -1.879000000    -2.447000000     0.743000000
C    -2.731000000    -3.581000000     1.208000000
O    -2.382000000    -4.729000000     1.264000000
O    -3.724000000    -3.284000000     1.785000000
O    -4.783000000    -6.172000000    -1.488000000
H    -3.834000000    -6.051000000    -1.482000000
H    -4.940000000    -6.868000000    -0.850000000
O    -1.260000000    -9.997000000     2.594000000
H    -1.258000000    -9.053000000     2.439000000
H    -0.403000000   -10.178000000     2.980000000
O     1.027000000    -8.166000000     1.304000000
H     1.238000000    -8.432000000     0.408000000
H     1.857000000    -8.236000000     1.776000000
O    -5.732000000    -1.349000000     2.816000000
H    -5.064000000    -1.605000000     2.181000000
H    -5.369000000    -1.609000000     3.663000000
O    -4.186000000    -3.147000000     4.577000000
H    -3.825000000    -3.160000000     3.690000000
H    -4.233000000    -4.070000000     4.829000000
O    -5.381000000    -1.309000000     6.002000000
H    -4.781000000    -1.969000000     5.655000000
H    -6.087000000    -1.814000000     6.405000000
O    -4.575000000    -5.921000000     5.575000000
H    -3.891000000    -6.197000000     4.964000000
H    -4.623000000    -6.629000000     6.217000000
O    -6.674000000    -5.262000000     3.654000000
H    -6.102000000    -5.483000000     4.389000000
H    -6.188000000    -5.545000000     2.879000000
O    -5.972000000    -4.186000000     0.452000000
H    -5.180000000    -4.035000000     0.968000000
H    -5.650000000    -4.397000000    -0.425000000
O    -7.850000000    -2.424000000     1.310000000
H    -7.410000000    -3.237000000     1.060000000
H    -7.216000000    -1.969000000     1.864000000
O    -1.928000000    -5.158000000     6.991000000
H    -1.587000000    -5.584000000     6.204000000
H    -2.253000000    -4.312000000     6.684000000
O    -4.023000000    -6.338000000     2.574000000
H    -3.598000000    -5.617000000     2.109000000
H    -3.298000000    -6.863000000     2.914000000
O    -5.776000000    -7.624000000     0.829000000
H    -6.666000000    -7.409000000     1.108000000
H    -5.224000000    -7.365000000     1.567000000
O    -1.985000000    -6.167000000    -0.982000000
H    -1.655000000    -5.654000000    -1.720000000
H    -1.883000000    -5.591000000    -0.225000000
O    -4.358000000    -9.193000000    -0.810000000
H    -4.903000000    -8.583000000    -0.313000000
H    -3.957000000    -9.752000000    -0.144000000
O    -1.722000000    -5.585000000     4.215000000
H    -1.343000000    -6.232000000     3.621000000
H    -1.490000000    -4.740000000     3.828000000
O    -8.196000000    -2.600000000    -1.772000000
H    -7.424000000    -2.035000000    -1.760000000
H    -8.317000000    -2.822000000    -2.696000000
O    -1.642000000    -7.329000000     1.882000000
H    -0.788000000    -7.396000000     1.454000000
H    -1.982000000    -6.478000000     1.606000000
O    -1.917000000    -9.213000000    -1.668000000
H    -1.604000000    -8.359000000    -1.370000000
H    -2.868000000    -9.167000000    -1.570000000
