218
-1455.24816
C    -2.954000000     2.572000000     3.558000000
H    -3.226000000     3.297000000     2.795000000
C    -1.557000000     2.433000000     3.808000000
C    -1.226000000     1.557000000     4.868000000
H    -0.181000000     1.405000000     5.124000000
C    -0.534000000     3.068000000     2.904000000
O    -1.016000000     4.251000000     2.411000000
H    -0.415000000     2.351000000     2.078000000
O     0.724000000     3.256000000     3.651000000
C     1.934000000     2.980000000     3.035000000
C     2.513000000     1.752000000     3.234000000
H     1.950000000     1.065000000     3.860000000
C     3.657000000     1.380000000     2.495000000
O     4.027000000     0.061000000     2.732000000
C     4.246000000     2.286000000     1.516000000
C     5.396000000     1.874000000     0.583000000
H     5.876000000     2.779000000     0.207000000
C     5.089000000     0.915000000    -0.576000000
C     4.750000000     1.457000000    -1.799000000
H     4.697000000     2.528000000    -1.979000000
H     6.148000000     1.440000000     1.246000000
C     3.565000000     3.499000000     1.338000000
H     3.933000000     4.152000000     0.551000000
C     2.424000000     3.871000000     2.033000000
C     1.718000000     5.170000000     1.670000000
H     2.371000000     5.890000000     1.172000000
H     1.376000000     5.614000000     2.607000000
C     0.573000000     4.861000000     0.651000000
C     0.843000000     5.023000000    -0.680000000
H     1.900000000     5.118000000    -0.916000000
C    -0.709000000     4.451000000     1.129000000
C    -1.743000000     4.330000000     0.206000000
H    -2.752000000     4.059000000     0.508000000
C    -1.473000000     4.408000000    -1.137000000
O    -2.453000000     4.089000000    -1.977000000
C    -2.468000000     2.753000000    -2.383000000
C    -3.861000000     2.113000000    -2.279000000
C    -4.008000000     0.791000000    -2.694000000
H    -3.188000000     0.421000000    -3.302000000
C    -4.918000000     2.699000000    -1.529000000
H    -4.838000000     3.716000000    -1.154000000
O    -1.853000000     2.619000000    -3.642000000
H    -1.889000000     2.201000000    -1.628000000
C    -0.218000000     4.766000000    -1.639000000
C     0.104000000     4.792000000    -3.100000000
H     0.955000000     5.413000000    -3.389000000
H    -0.751000000     5.234000000    -3.614000000
C     0.516000000     3.254000000    -3.474000000
C     1.825000000     2.849000000    -3.642000000
H     2.587000000     3.621000000    -3.568000000
C    -0.530000000     2.319000000    -3.738000000
C    -0.228000000     0.996000000    -3.998000000
H    -1.040000000     0.274000000    -4.043000000
C     1.072000000     0.621000000    -4.227000000
O     1.259000000    -0.736000000    -4.350000000
C     1.873000000    -1.440000000    -3.304000000
C     1.340000000    -2.835000000    -3.211000000
C    -0.065000000    -3.027000000    -3.503000000
H    -0.757000000    -2.195000000    -3.598000000
C     2.128000000    -3.978000000    -2.934000000
H     3.199000000    -3.847000000    -2.804000000
O     3.334000000    -1.468000000    -3.490000000
H     1.521000000    -1.012000000    -2.353000000
C     2.126000000     1.543000000    -3.957000000
C     3.663000000     1.284000000    -4.127000000
H     4.238000000     2.206000000    -4.238000000
H     3.888000000     0.729000000    -5.040000000
C     4.229000000     0.664000000    -2.826000000
C     4.021000000    -0.654000000    -2.595000000
C     4.371000000    -1.218000000    -1.351000000
H     4.091000000    -2.240000000    -1.109000000
C     4.934000000    -0.453000000    -0.417000000
O     5.109000000    -0.921000000     0.848000000
C     3.866000000    -0.871000000     1.658000000
H     3.192000000    -0.355000000     0.959000000
C     3.242000000    -2.122000000     2.128000000
C     2.043000000    -2.085000000     2.761000000
H     1.614000000    -1.111000000     2.979000000
C     3.861000000    -3.303000000     1.786000000
H     4.833000000    -3.437000000     1.320000000
C     3.204000000    -4.499000000     2.169000000
O     3.657000000    -5.748000000     1.705000000
C     1.943000000    -4.437000000     2.774000000
H     1.485000000    -5.370000000     3.093000000
C     1.292000000    -3.234000000     3.053000000
O    -0.008000000    -3.150000000     3.516000000
C    -0.127000000    -2.781000000     4.852000000
C    -0.827000000    -1.623000000     5.068000000
H    -1.369000000    -1.173000000     4.240000000
C     0.464000000    -3.514000000     5.876000000
H     1.046000000    -4.408000000     5.669000000
C     0.445000000    -2.986000000     7.149000000
H     0.914000000    -3.471000000     8.000000000
C    -0.228000000    -1.743000000     7.441000000
H    -0.331000000    -1.368000000     8.456000000
C    -0.912000000    -1.128000000     6.407000000
O    -1.670000000     0.025000000     6.653000000
C    -2.107000000     0.857000000     5.613000000
C    -3.496000000     1.003000000     5.375000000
H    -4.258000000     0.444000000     5.912000000
C    -3.874000000     1.846000000     4.275000000
O    -5.201000000     1.999000000     4.012000000
C    -5.792000000     2.679000000     2.913000000
C    -6.037000000     2.136000000     1.671000000
H    -5.663000000     1.124000000     1.533000000
C    -6.237000000     3.995000000     3.248000000
H    -6.143000000     4.355000000     4.269000000
C    -6.919000000     4.823000000     2.293000000
H    -7.318000000     5.752000000     2.693000000
C    -7.189000000     4.227000000     1.082000000
H    -7.831000000     4.726000000     0.361000000
C    -6.778000000     2.922000000     0.747000000
O    -7.063000000     2.419000000    -0.482000000
C    -6.089000000     1.921000000    -1.288000000
C    -6.252000000     0.649000000    -1.822000000
H    -7.187000000     0.102000000    -1.738000000
C    -5.183000000     0.059000000    -2.435000000
O    -5.414000000    -1.168000000    -2.976000000
C    -4.585000000    -1.878000000    -3.760000000
C    -3.634000000    -2.703000000    -3.241000000
H    -3.579000000    -2.799000000    -2.160000000
C    -4.691000000    -1.689000000    -5.164000000
H    -5.383000000    -0.989000000    -5.624000000
C    -3.697000000    -2.361000000    -6.001000000
H    -3.772000000    -2.203000000    -7.073000000
C    -2.813000000    -3.232000000    -5.422000000
H    -2.173000000    -3.865000000    -6.031000000
C    -2.798000000    -3.385000000    -4.033000000
O    -2.043000000    -4.364000000    -3.451000000
C    -0.645000000    -4.295000000    -3.380000000
C     0.198000000    -5.422000000    -3.151000000
H    -0.293000000    -6.389000000    -3.073000000
C     1.564000000    -5.287000000    -3.009000000
O     2.311000000    -6.488000000    -2.726000000
C     3.342000000    -6.486000000    -1.821000000
C     4.578000000    -7.019000000    -2.134000000
H     4.718000000    -7.330000000    -3.166000000
C     5.568000000    -7.009000000    -1.171000000
H     6.567000000    -7.308000000    -1.476000000
C     5.261000000    -6.759000000     0.139000000
H     6.004000000    -7.066000000     0.870000000
C     4.052000000    -6.070000000     0.413000000
C     3.068000000    -5.961000000    -0.575000000
H     2.051000000    -5.719000000    -0.276000000
C    -2.408000000    -0.958000000     0.297000000
H    -3.440000000    -0.757000000     0.572000000
C    -1.527000000     0.149000000     0.191000000
H    -1.893000000     1.165000000     0.311000000
C    -0.168000000    -0.089000000    -0.057000000
C     0.830000000     1.007000000    -0.261000000
H     0.748000000     1.752000000     0.533000000
H     1.840000000     0.601000000    -0.177000000
H     0.567000000     1.568000000    -1.160000000
C     0.310000000    -1.402000000    -0.114000000
H     1.387000000    -1.551000000    -0.109000000
C    -0.542000000    -2.479000000     0.021000000
H    -0.159000000    -3.496000000     0.041000000
C    -1.917000000    -2.276000000     0.169000000
C    -2.834000000    -3.448000000     0.516000000
O    -2.458000000    -4.510000000     0.139000000
O    -3.937000000    -3.226000000     0.973000000
O    -3.518000000    -6.504000000    -4.763000000
H    -2.804000000    -5.868000000    -4.818000000
H    -3.796000000    -6.474000000    -3.847000000
O    -1.391000000    -9.246000000     1.666000000
H    -1.590000000    -8.435000000     1.198000000
H    -1.260000000    -8.972000000     2.574000000
O    -5.335000000    -1.800000000     2.611000000
H    -5.020000000    -2.267000000     1.837000000
H    -4.570000000    -1.743000000     3.184000000
O    -3.329000000    -3.092000000     4.151000000
H    -2.725000000    -3.035000000     3.410000000
H    -2.970000000    -3.789000000     4.700000000
O    -4.744000000    -2.064000000     6.355000000
H    -4.646000000    -2.465000000     5.491000000
H    -3.860000000    -2.062000000     6.720000000
O    -5.916000000    -4.736000000    -0.563000000
H    -5.976000000    -5.603000000    -0.162000000
H    -5.147000000    -4.337000000    -0.156000000
O    -8.207000000    -1.860000000     1.015000000
H    -7.998000000    -2.405000000     0.255000000
H    -7.360000000    -1.691000000     1.428000000
O     0.681000000    -8.361000000    -1.029000000
H    -0.238000000    -8.279000000    -0.775000000
H     0.785000000    -7.747000000    -1.756000000
O    -2.349000000    -5.106000000     5.961000000
H    -1.855000000    -4.368000000     6.317000000
H    -1.683000000    -5.755000000     5.736000000
O    -4.154000000    -5.550000000     2.864000000
H    -5.007000000    -5.543000000     3.299000000
H    -4.124000000    -4.724000000     2.382000000
O    -6.704000000    -7.103000000     0.476000000
H    -7.532000000    -6.750000000     0.804000000
H    -6.638000000    -7.969000000     0.877000000
O    -1.881000000    -7.071000000    -0.308000000
H    -2.365000000    -7.322000000    -1.094000000
H    -2.157000000    -6.171000000    -0.133000000
O    -4.229000000    -7.386000000    -2.099000000
H    -4.713000000    -6.584000000    -1.903000000
H    -4.796000000    -8.091000000    -1.785000000
O    -0.695000000    -6.932000000     5.081000000
H    -1.029000000    -6.690000000     4.218000000
H     0.252000000    -7.005000000     4.960000000
O    -7.543000000    -2.244000000     4.328000000
H    -7.544000000    -3.178000000     4.536000000
H    -6.795000000    -2.130000000     3.742000000
O    -4.292000000    -8.025000000     4.872000000
H    -5.121000000    -8.259000000     4.456000000
H    -3.894000000    -7.392000000     4.274000000
O    -8.348000000    -3.377000000    -1.059000000
H    -7.570000000    -3.854000000    -0.768000000
H    -8.121000000    -3.058000000    -1.932000000
O    -1.428000000    -6.025000000     2.676000000
H    -0.931000000    -5.900000000     1.867000000
H    -2.342000000    -5.921000000     2.414000000
O    -1.799000000    -8.344000000    -2.967000000
H    -2.441000000    -7.722000000    -3.311000000
H    -2.290000000    -9.157000000    -2.853000000
