218
-1442.76167
C    -1.757000000     2.862000000     3.991000000
H    -1.798000000     3.833000000     3.504000000
C    -0.607000000     2.104000000     3.899000000
C    -0.678000000     0.822000000     4.400000000
H     0.154000000     0.130000000     4.301000000
C     0.741000000     2.564000000     3.230000000
O     0.778000000     3.978000000     3.124000000
H     0.662000000     2.123000000     2.225000000
O     1.925000000     2.133000000     3.991000000
C     2.941000000     1.573000000     3.238000000
C     3.197000000     0.185000000     3.324000000
H     2.704000000    -0.536000000     3.973000000
C     4.080000000    -0.402000000     2.450000000
O     4.028000000    -1.751000000     2.446000000
C     4.708000000     0.342000000     1.443000000
C     5.608000000    -0.392000000     0.421000000
H     6.508000000     0.128000000     0.088000000
C     4.872000000    -0.846000000    -0.746000000
C     4.742000000    -0.014000000    -1.838000000
H     5.084000000     1.017000000    -1.798000000
H     6.026000000    -1.243000000     0.963000000
C     4.573000000     1.729000000     1.439000000
H     5.169000000     2.304000000     0.735000000
C     3.718000000     2.355000000     2.359000000
C     3.547000000     3.847000000     2.225000000
H     4.434000000     4.343000000     1.823000000
H     3.519000000     4.329000000     3.204000000
C     2.287000000     4.283000000     1.356000000
C     2.468000000     4.452000000    -0.015000000
H     3.424000000     4.385000000    -0.527000000
C     1.018000000     4.451000000     1.928000000
C    -0.071000000     4.703000000     1.062000000
H    -1.078000000     4.575000000     1.451000000
C     0.079000000     4.792000000    -0.285000000
O    -1.072000000     4.845000000    -1.039000000
C    -1.403000000     3.655000000    -1.780000000
C    -2.863000000     3.432000000    -1.881000000
C    -3.396000000     2.776000000    -3.009000000
H    -2.751000000     2.390000000    -3.794000000
C    -3.713000000     3.746000000    -0.820000000
H    -3.307000000     4.105000000     0.122000000
O    -0.883000000     3.760000000    -3.116000000
H    -1.033000000     2.727000000    -1.319000000
C     1.373000000     4.768000000    -0.838000000
C     1.597000000     4.876000000    -2.356000000
H     2.637000000     5.133000000    -2.568000000
H     0.886000000     5.508000000    -2.891000000
C     1.493000000     3.410000000    -2.945000000
C     2.588000000     2.619000000    -3.213000000
H     3.560000000     2.978000000    -2.884000000
C     0.224000000     2.975000000    -3.373000000
C     0.056000000     1.748000000    -3.988000000
H    -0.982000000     1.520000000    -4.217000000
C     1.170000000     0.968000000    -4.282000000
O     0.999000000    -0.313000000    -4.845000000
C     1.090000000    -1.465000000    -3.985000000
C     0.025000000    -2.624000000    -4.272000000
C    -1.248000000    -2.177000000    -4.553000000
H    -1.327000000    -1.102000000    -4.689000000
C     0.272000000    -3.981000000    -3.954000000
H     1.225000000    -4.346000000    -3.581000000
O     2.446000000    -1.968000000    -3.984000000
H     0.895000000    -1.123000000    -2.958000000
C     2.448000000     1.401000000    -3.904000000
C     3.699000000     0.476000000    -4.085000000
H     4.557000000     1.114000000    -4.306000000
H     3.570000000    -0.110000000    -4.997000000
C     3.954000000    -0.445000000    -2.916000000
C     3.344000000    -1.619000000    -2.945000000
C     3.534000000    -2.410000000    -1.883000000
H     2.992000000    -3.353000000    -1.880000000
C     4.137000000    -2.074000000    -0.707000000
O     4.028000000    -2.974000000     0.388000000
C     3.209000000    -2.453000000     1.478000000
H     2.580000000    -1.640000000     1.086000000
C     2.349000000    -3.520000000     2.096000000
C     2.176000000    -3.656000000     3.445000000
H     2.364000000    -2.859000000     4.159000000
C     1.797000000    -4.523000000     1.257000000
H     1.916000000    -4.572000000     0.178000000
C     1.028000000    -5.507000000     1.796000000
O     0.394000000    -6.409000000     1.026000000
C     0.816000000    -5.592000000     3.163000000
H     0.187000000    -6.379000000     3.570000000
C     1.349000000    -4.608000000     3.990000000
O     1.039000000    -4.696000000     5.327000000
C     0.617000000    -3.636000000     6.054000000
C    -0.284000000    -2.772000000     5.464000000
H    -0.741000000    -2.860000000     4.481000000
C     0.955000000    -3.667000000     7.423000000
H     1.591000000    -4.383000000     7.938000000
C     0.370000000    -2.669000000     8.174000000
H     0.597000000    -2.600000000     9.234000000
C    -0.375000000    -1.647000000     7.545000000
H    -0.715000000    -0.841000000     8.190000000
C    -0.809000000    -1.703000000     6.244000000
O    -1.823000000    -0.966000000     5.688000000
C    -1.716000000     0.354000000     5.198000000
C    -2.823000000     1.160000000     5.309000000
H    -3.663000000     0.670000000     5.796000000
C    -2.902000000     2.377000000     4.640000000
O    -4.009000000     3.073000000     4.636000000
C    -4.430000000     3.941000000     3.665000000
C    -4.753000000     3.444000000     2.388000000
H    -4.472000000     2.429000000     2.117000000
C    -4.739000000     5.272000000     4.023000000
H    -4.502000000     5.666000000     5.008000000
C    -5.333000000     6.118000000     3.074000000
H    -5.506000000     7.186000000     3.179000000
C    -5.665000000     5.605000000     1.867000000
H    -6.231000000     6.156000000     1.120000000
C    -5.376000000     4.266000000     1.496000000
O    -5.796000000     3.855000000     0.271000000
C    -5.079000000     3.553000000    -0.794000000
C    -5.629000000     2.791000000    -1.840000000
H    -6.712000000     2.701000000    -1.819000000
C    -4.765000000     2.502000000    -2.952000000
O    -5.350000000     1.956000000    -4.051000000
C    -4.761000000     0.947000000    -4.799000000
C    -4.472000000    -0.287000000    -4.179000000
H    -4.659000000    -0.439000000    -3.120000000
C    -4.504000000     1.165000000    -6.179000000
H    -4.773000000     2.096000000    -6.670000000
C    -3.953000000     0.224000000    -6.987000000
H    -3.792000000     0.386000000    -8.050000000
C    -3.744000000    -1.018000000    -6.459000000
H    -3.318000000    -1.791000000    -7.094000000
C    -3.921000000    -1.257000000    -5.074000000
O    -3.526000000    -2.482000000    -4.548000000
C    -2.303000000    -3.044000000    -4.529000000
C    -2.124000000    -4.426000000    -4.318000000
H    -3.008000000    -5.059000000    -4.332000000
C    -0.827000000    -4.879000000    -4.006000000
O    -0.629000000    -6.242000000    -3.746000000
C     0.176000000    -6.643000000    -2.719000000
C     1.258000000    -7.500000000    -2.904000000
H     1.610000000    -7.869000000    -3.864000000
C     1.999000000    -7.984000000    -1.826000000
H     2.858000000    -8.618000000    -2.031000000
C     1.651000000    -7.678000000    -0.498000000
H     2.175000000    -8.063000000     0.373000000
C     0.647000000    -6.716000000    -0.317000000
C    -0.119000000    -6.242000000    -1.429000000
H    -0.945000000    -5.570000000    -1.215000000
C    -2.389000000     0.608000000     0.200000000
H    -3.096000000     1.376000000     0.505000000
C    -1.088000000     0.925000000     0.330000000
H    -0.813000000     1.835000000     0.857000000
C    -0.137000000     0.045000000    -0.147000000
C     1.348000000     0.490000000    -0.072000000
H     1.468000000     1.555000000    -0.279000000
H     1.798000000     0.305000000     0.906000000
H     1.880000000    -0.028000000    -0.873000000
C    -0.529000000    -1.169000000    -0.687000000
H     0.246000000    -1.823000000    -1.077000000
C    -1.856000000    -1.559000000    -0.700000000
H    -2.139000000    -2.539000000    -1.075000000
C    -2.832000000    -0.574000000    -0.319000000
C    -4.322000000    -0.858000000    -0.306000000
O    -4.748000000    -1.799000000    -0.888000000
O    -5.092000000    -0.225000000     0.426000000
O    -8.001000000     1.948000000     3.939000000
H    -8.816000000     1.935000000     3.437000000
H    -7.321000000     1.743000000     3.298000000
O    -8.247000000    -6.195000000    -2.262000000
H    -7.721000000    -5.398000000    -2.193000000
H    -9.152000000    -5.883000000    -2.293000000
O    -7.150000000     0.969000000     1.300000000
H    -6.321000000     0.524000000     1.124000000
H    -7.154000000     1.715000000     0.700000000
O    -6.606000000    -4.496000000     3.844000000
H    -5.965000000    -3.959000000     4.309000000
H    -7.335000000    -4.585000000     4.458000000
O    -6.163000000    -6.487000000    -0.199000000
H    -5.936000000    -7.405000000    -0.051000000
H    -5.666000000    -6.240000000    -0.979000000
O    -4.654000000    -1.042000000     3.136000000
H    -4.881000000    -0.580000000     2.329000000
H    -3.720000000    -1.232000000     3.049000000
O    -8.770000000    -1.288000000    -3.892000000
H    -8.204000000    -0.890000000    -3.231000000
H    -8.173000000    -1.785000000    -4.451000000
O    -6.330000000    -2.598000000     1.418000000
H    -5.608000000    -2.827000000     2.003000000
H    -5.905000000    -2.195000000     0.661000000
O    -9.526000000    -0.873000000    -0.861000000
H    -8.614000000    -0.670000000    -1.070000000
H    -9.517000000    -1.801000000    -0.626000000
O    -5.531000000    -0.773000000     5.768000000
H    -6.420000000    -0.422000000     5.807000000
H    -5.390000000    -0.965000000     4.841000000
O    -7.081000000    -0.546000000    -1.819000000
H    -6.257000000    -1.024000000    -1.717000000
H    -6.836000000     0.375000000    -1.724000000
O    -4.421000000    -5.997000000    -2.313000000
H    -5.050000000    -5.352000000    -2.636000000
H    -4.102000000    -6.435000000    -3.101000000
O    -6.601000000    -3.823000000    -2.316000000
H    -6.555000000    -3.287000000    -3.108000000
H    -5.971000000    -3.422000000    -1.718000000
O    -4.230000000    -3.568000000     4.921000000
H    -4.245000000    -2.676000000     5.268000000
H    -3.423000000    -3.612000000     4.407000000
O    -2.562000000    -4.012000000     2.666000000
H    -3.165000000    -4.318000000     1.989000000
H    -1.710000000    -3.976000000     2.231000000
O    -8.342000000    -1.125000000     2.388000000
H    -8.064000000    -0.342000000     1.912000000
H    -7.662000000    -1.772000000     2.202000000
O    -7.251000000    -3.126000000    -5.048000000
H    -6.849000000    -3.992000000    -5.110000000
H    -6.996000000    -2.684000000    -5.858000000
O    -8.003000000    -4.815000000     0.565000000
H    -7.566000000    -3.982000000     0.743000000
H    -7.305000000    -5.389000000     0.250000000
O    -3.802000000    -4.425000000     0.043000000
H    -4.164000000    -3.675000000    -0.428000000
H    -3.759000000    -5.122000000    -0.612000000
