218
-1462.37484
C    -1.136000000     1.871000000     4.273000000
H    -1.519000000     2.687000000     3.666000000
C     0.236000000     1.671000000     4.453000000
C     0.687000000     0.667000000     5.376000000
H     1.746000000     0.499000000     5.557000000
C     1.222000000     2.345000000     3.463000000
O     0.954000000     3.771000000     3.335000000
H     0.965000000     1.866000000     2.506000000
O     2.614000000     2.178000000     3.776000000
C     3.427000000     1.719000000     2.749000000
C     3.677000000     0.344000000     2.733000000
H     3.365000000    -0.265000000     3.578000000
C     4.342000000    -0.233000000     1.641000000
O     4.294000000    -1.622000000     1.444000000
C     4.764000000     0.631000000     0.603000000
C     5.548000000     0.015000000    -0.588000000
H     6.297000000     0.781000000    -0.800000000
C     4.635000000    -0.454000000    -1.719000000
C     4.347000000     0.497000000    -2.704000000
H     4.811000000     1.480000000    -2.732000000
H     6.147000000    -0.802000000    -0.183000000
C     4.702000000     2.046000000     0.733000000
H     5.242000000     2.735000000     0.089000000
C     3.837000000     2.568000000     1.674000000
C     3.583000000     4.058000000     1.848000000
H     4.346000000     4.643000000     1.330000000
H     3.675000000     4.348000000     2.897000000
C     2.174000000     4.350000000     1.315000000
C     2.077000000     4.573000000    -0.066000000
H     2.981000000     4.522000000    -0.667000000
C     0.977000000     4.210000000     2.034000000
C    -0.322000000     4.321000000     1.371000000
H    -1.235000000     4.340000000     1.960000000
C    -0.336000000     4.619000000    -0.004000000
O    -1.517000000     4.582000000    -0.700000000
C    -1.873000000     3.458000000    -1.551000000
C    -3.429000000     3.215000000    -1.403000000
C    -4.270000000     2.805000000    -2.444000000
H    -3.818000000     2.520000000    -3.390000000
C    -4.041000000     3.422000000    -0.188000000
H    -3.412000000     3.631000000     0.674000000
O    -1.667000000     3.825000000    -2.907000000
H    -1.280000000     2.599000000    -1.204000000
C     0.898000000     4.770000000    -0.701000000
C     0.957000000     5.043000000    -2.205000000
H     1.922000000     5.429000000    -2.541000000
H     0.222000000     5.810000000    -2.455000000
C     0.737000000     3.745000000    -3.007000000
C     1.910000000     3.159000000    -3.515000000
H     2.883000000     3.579000000    -3.274000000
C    -0.506000000     3.323000000    -3.407000000
C    -0.645000000     2.117000000    -4.089000000
H    -1.590000000     1.658000000    -4.369000000
C     0.457000000     1.430000000    -4.404000000
O     0.274000000     0.157000000    -4.902000000
C     0.539000000    -1.068000000    -4.180000000
C    -0.533000000    -2.128000000    -4.355000000
C    -1.840000000    -1.700000000    -4.179000000
H    -1.970000000    -0.620000000    -4.177000000
C    -0.284000000    -3.497000000    -4.332000000
H     0.732000000    -3.875000000    -4.406000000
O     1.857000000    -1.595000000    -4.488000000
H     0.518000000    -0.848000000    -3.102000000
C     1.732000000     1.967000000    -4.227000000
C     2.967000000     1.259000000    -4.750000000
H     3.819000000     1.865000000    -5.065000000
H     2.655000000     0.686000000    -5.626000000
C     3.455000000     0.150000000    -3.720000000
C     2.896000000    -1.153000000    -3.730000000
C     3.252000000    -2.096000000    -2.755000000
H     2.787000000    -3.077000000    -2.699000000
C     4.167000000    -1.754000000    -1.720000000
O     4.088000000    -2.554000000    -0.628000000
C     3.354000000    -2.114000000     0.462000000
H     2.681000000    -1.284000000     0.198000000
C     2.599000000    -3.233000000     1.212000000
C     2.804000000    -3.495000000     2.596000000
H     3.499000000    -2.970000000     3.245000000
C     1.568000000    -4.014000000     0.553000000
H     1.465000000    -3.818000000    -0.511000000
C     0.824000000    -4.867000000     1.241000000
O     0.001000000    -5.736000000     0.533000000
C     1.045000000    -5.083000000     2.558000000
H     0.578000000    -5.864000000     3.151000000
C     1.979000000    -4.420000000     3.299000000
O     2.223000000    -4.795000000     4.578000000
C     2.096000000    -3.851000000     5.588000000
C     1.144000000    -2.807000000     5.669000000
H     0.424000000    -2.703000000     4.861000000
C     3.007000000    -4.001000000     6.601000000
H     3.578000000    -4.924000000     6.541000000
C     2.982000000    -3.209000000     7.780000000
H     3.604000000    -3.435000000     8.643000000
C     1.989000000    -2.194000000     7.883000000
H     1.853000000    -1.546000000     8.744000000
C     1.113000000    -1.967000000     6.813000000
O     0.072000000    -1.104000000     7.085000000
C    -0.241000000    -0.079000000     6.171000000
C    -1.574000000     0.070000000     5.875000000
H    -2.242000000    -0.621000000     6.382000000
C    -1.996000000     1.041000000     4.983000000
O    -3.381000000     1.176000000     4.746000000
C    -3.927000000     2.332000000     4.215000000
C    -4.735000000     2.230000000     3.070000000
H    -5.003000000     1.245000000     2.696000000
C    -3.674000000     3.557000000     4.838000000
H    -2.997000000     3.708000000     5.675000000
C    -4.261000000     4.685000000     4.336000000
H    -4.130000000     5.633000000     4.851000000
C    -5.025000000     4.636000000     3.145000000
H    -5.287000000     5.616000000     2.755000000
C    -5.272000000     3.369000000     2.512000000
O    -5.986000000     3.293000000     1.352000000
C    -5.406000000     3.166000000     0.119000000
C    -6.171000000     2.703000000    -0.929000000
H    -7.225000000     2.514000000    -0.742000000
C    -5.631000000     2.519000000    -2.185000000
O    -6.406000000     1.944000000    -3.102000000
C    -5.850000000     1.015000000    -3.952000000
C    -5.239000000    -0.064000000    -3.389000000
H    -5.316000000    -0.135000000    -2.307000000
C    -5.757000000     1.192000000    -5.326000000
H    -6.174000000     2.087000000    -5.781000000
C    -5.219000000     0.210000000    -6.199000000
H    -5.369000000     0.377000000    -7.263000000
C    -4.605000000    -0.906000000    -5.615000000
H    -4.106000000    -1.642000000    -6.240000000
C    -4.606000000    -1.011000000    -4.207000000
O    -4.120000000    -2.182000000    -3.674000000
C    -2.841000000    -2.572000000    -3.929000000
C    -2.611000000    -3.939000000    -3.935000000
H    -3.430000000    -4.644000000    -3.812000000
C    -1.328000000    -4.392000000    -4.203000000
O    -1.051000000    -5.733000000    -4.229000000
C    -0.341000000    -6.309000000    -3.169000000
C     0.517000000    -7.406000000    -3.306000000
H     0.565000000    -7.977000000    -4.230000000
C     1.311000000    -7.904000000    -2.275000000
H     1.930000000    -8.789000000    -2.397000000
C     1.113000000    -7.330000000    -0.990000000
H     1.737000000    -7.698000000    -0.180000000
C     0.298000000    -6.174000000    -0.771000000
C    -0.459000000    -5.724000000    -1.873000000
H    -1.134000000    -4.902000000    -1.651000000
C    -2.574000000    -0.187000000     0.310000000
H    -3.519000000     0.295000000     0.548000000
C    -1.432000000     0.575000000     0.371000000
H    -1.564000000     1.617000000     0.650000000
C    -0.220000000     0.103000000    -0.072000000
C     1.029000000     0.910000000     0.064000000
H     1.607000000     0.513000000     0.901000000
H     1.647000000     0.888000000    -0.836000000
H     0.888000000     1.967000000     0.300000000
C    -0.190000000    -1.184000000    -0.515000000
H     0.768000000    -1.490000000    -0.927000000
C    -1.299000000    -2.018000000    -0.497000000
H    -1.172000000    -3.087000000    -0.647000000
C    -2.487000000    -1.515000000     0.007000000
C    -3.749000000    -2.335000000     0.007000000
O    -3.513000000    -3.520000000     0.154000000
O    -4.831000000    -1.905000000     0.337000000
O    -7.875000000    -0.981000000    -1.834000000
H    -8.351000000    -0.534000000    -2.533000000
H    -7.503000000    -1.756000000    -2.254000000
O    -4.996000000    -1.420000000     3.157000000
H    -5.067000000    -1.448000000     2.203000000
H    -5.851000000    -1.109000000     3.451000000
O    -7.633000000    -3.616000000     0.576000000
H    -8.157000000    -3.178000000    -0.095000000
H    -6.885000000    -3.034000000     0.714000000
O    -3.088000000    -6.095000000    -0.054000000
H    -3.287000000    -6.253000000    -0.976000000
H    -3.182000000    -5.149000000     0.053000000
O    -4.539000000    -4.334000000     2.714000000
H    -4.956000000    -3.813000000     3.400000000
H    -4.269000000    -3.693000000     2.056000000
O    -4.820000000    -7.694000000    -1.438000000
H    -4.154000000    -8.234000000    -1.864000000
H    -5.363000000    -8.319000000    -0.956000000
O    -5.955000000    -3.349000000     5.410000000
H    -5.616000000    -2.466000000     5.551000000
H    -6.778000000    -3.217000000     4.940000000
O    -7.225000000    -7.079000000    -2.564000000
H    -7.788000000    -7.434000000    -1.877000000
H    -6.336000000    -7.291000000    -2.280000000
O    -1.693000000    -4.909000000     5.016000000
H    -2.013000000    -4.034000000     4.796000000
H    -1.534000000    -5.326000000     4.169000000
O    -7.111000000    -0.414000000     0.593000000
H    -6.370000000    -1.019000000     0.581000000
H    -7.454000000    -0.439000000    -0.300000000
O    -7.083000000    -3.317000000    -3.432000000
H    -6.604000000    -3.439000000    -4.252000000
H    -6.492000000    -3.653000000    -2.758000000
O    -5.584000000    -6.557000000     1.414000000
H    -4.888000000    -6.452000000     0.765000000
H    -5.423000000    -5.863000000     2.053000000
O    -1.994000000    -8.530000000     1.273000000
H    -1.147000000    -8.231000000     1.602000000
H    -2.422000000    -7.735000000     0.954000000
O    -5.698000000    -4.420000000    -1.459000000
H    -4.966000000    -3.921000000    -1.096000000
H    -6.365000000    -4.400000000    -0.773000000
O    -8.056000000    -5.967000000     2.755000000
H    -7.384000000    -5.516000000     2.244000000
H    -8.014000000    -6.876000000     2.457000000
O    -9.118000000     0.571000000     2.200000000
H    -8.375000000     0.553000000     1.597000000
H    -9.825000000     0.140000000     1.721000000
O    -2.549000000    -2.445000000     3.779000000
H    -2.313000000    -2.649000000     2.874000000
H    -3.285000000    -1.837000000     3.703000000
O    -1.894000000    -5.740000000     2.457000000
H    -2.797000000    -5.455000000     2.319000000
H    -1.525000000    -5.802000000     1.576000000
O    -8.692000000    -1.577000000     3.574000000
H    -7.981000000    -1.033000000     3.914000000
H    -9.078000000    -1.055000000     2.871000000
