218
-1443.10136
C    -3.088000000    -2.947000000    -3.210000000
H    -3.288000000    -2.444000000    -4.152000000
C    -3.295000000    -2.435000000    -1.932000000
C    -2.992000000    -3.259000000    -0.820000000
H    -3.239000000    -2.971000000     0.199000000
C    -3.706000000    -1.010000000    -1.713000000
O    -4.101000000    -0.365000000    -2.951000000
H    -2.873000000    -0.430000000    -1.289000000
O    -4.787000000    -0.806000000    -0.756000000
C    -4.530000000     0.026000000     0.287000000
C    -4.211000000    -0.456000000     1.541000000
H    -3.998000000    -1.500000000     1.755000000
C    -3.895000000     0.484000000     2.545000000
O    -3.261000000     0.018000000     3.679000000
C    -3.973000000     1.782000000     2.340000000
C    -3.489000000     2.852000000     3.345000000
H    -4.075000000     3.739000000     3.097000000
C    -2.041000000     3.172000000     3.202000000
C    -1.665000000     4.156000000     2.287000000
H    -2.451000000     4.578000000     1.665000000
H    -3.652000000     2.510000000     4.370000000
C    -4.415000000     2.326000000     1.106000000
H    -4.557000000     3.399000000     1.007000000
C    -4.663000000     1.396000000    -0.008000000
C    -4.927000000     1.975000000    -1.372000000
H    -5.235000000     3.019000000    -1.284000000
H    -5.813000000     1.466000000    -1.758000000
C    -3.805000000     1.916000000    -2.429000000
C    -3.006000000     3.090000000    -2.562000000
H    -3.130000000     3.957000000    -1.917000000
C    -3.527000000     0.835000000    -3.228000000
C    -2.551000000     0.910000000    -4.192000000
H    -2.355000000     0.057000000    -4.837000000
C    -1.735000000     2.027000000    -4.336000000
O    -0.471000000     1.884000000    -4.925000000
C     0.552000000     1.693000000    -3.879000000
C     1.346000000     0.480000000    -4.019000000
C     2.456000000     0.161000000    -3.183000000
H     2.724000000     0.886000000    -2.418000000
C     1.034000000    -0.468000000    -4.957000000
H     0.201000000    -0.275000000    -5.629000000
O     1.327000000     2.876000000    -3.688000000
H     0.009000000     1.547000000    -2.933000000
C    -1.923000000     3.129000000    -3.482000000
C    -1.041000000     4.341000000    -3.605000000
H    -1.723000000     5.192000000    -3.557000000
H    -0.589000000     4.440000000    -4.594000000
C    -0.048000000     4.375000000    -2.466000000
C    -0.225000000     5.130000000    -1.299000000
H    -1.173000000     5.642000000    -1.151000000
C     1.178000000     3.683000000    -2.623000000
C     2.088000000     3.609000000    -1.540000000
H     3.008000000     3.033000000    -1.598000000
C     1.838000000     4.291000000    -0.370000000
O     2.806000000     4.191000000     0.570000000
C     2.677000000     3.318000000     1.704000000
C     3.940000000     2.667000000     2.072000000
C     4.889000000     2.326000000     1.088000000
H     4.743000000     2.674000000     0.068000000
C     4.166000000     2.089000000     3.345000000
H     3.439000000     2.291000000     4.127000000
O     1.981000000     3.967000000     2.762000000
H     1.958000000     2.586000000     1.309000000
C     0.640000000     5.020000000    -0.202000000
C     0.183000000     5.621000000     1.169000000
H    -0.604000000     6.352000000     0.974000000
H     1.037000000     6.104000000     1.648000000
C    -0.307000000     4.515000000     2.162000000
C     0.642000000     3.799000000     2.910000000
C     0.250000000     2.744000000     3.719000000
H     1.069000000     2.202000000     4.185000000
C    -1.099000000     2.418000000     3.885000000
O    -1.454000000     1.217000000     4.526000000
C    -1.834000000     0.113000000     3.762000000
H    -1.489000000     0.331000000     2.740000000
C    -1.176000000    -1.205000000     4.294000000
C    -1.927000000    -2.392000000     4.419000000
H    -2.998000000    -2.446000000     4.241000000
C     0.154000000    -1.251000000     4.662000000
H     0.785000000    -0.373000000     4.550000000
C     0.752000000    -2.465000000     5.117000000
O     2.099000000    -2.638000000     5.405000000
C     0.019000000    -3.641000000     5.146000000
H     0.525000000    -4.550000000     5.460000000
C    -1.288000000    -3.550000000     4.859000000
O    -2.047000000    -4.781000000     4.773000000
C    -2.836000000    -5.002000000     3.673000000
C    -2.252000000    -5.129000000     2.435000000
H    -1.165000000    -5.144000000     2.448000000
C    -4.267000000    -5.029000000     3.702000000
H    -4.677000000    -4.970000000     4.707000000
C    -5.007000000    -5.302000000     2.514000000
H    -6.091000000    -5.342000000     2.588000000
C    -4.320000000    -5.339000000     1.296000000
H    -4.797000000    -5.557000000     0.344000000
C    -2.974000000    -5.286000000     1.256000000
O    -2.253000000    -5.356000000     0.063000000
C    -2.520000000    -4.594000000    -1.066000000
C    -2.324000000    -5.089000000    -2.334000000
H    -2.117000000    -6.124000000    -2.593000000
C    -2.637000000    -4.276000000    -3.363000000
O    -2.547000000    -4.861000000    -4.603000000
C    -1.775000000    -4.306000000    -5.624000000
C    -0.596000000    -3.534000000    -5.289000000
H    -0.427000000    -3.287000000    -4.244000000
C    -1.978000000    -4.778000000    -6.939000000
H    -2.866000000    -5.391000000    -7.072000000
C    -1.169000000    -4.346000000    -8.004000000
H    -1.403000000    -4.654000000    -9.019000000
C    -0.069000000    -3.542000000    -7.691000000
H     0.642000000    -3.205000000    -8.441000000
C     0.231000000    -3.211000000    -6.356000000
O     1.432000000    -2.521000000    -6.139000000
C     1.716000000    -1.665000000    -5.072000000
C     2.799000000    -1.978000000    -4.249000000
H     3.167000000    -3.001000000    -4.260000000
C     3.134000000    -1.031000000    -3.278000000
O     4.196000000    -1.228000000    -2.464000000
C     5.182000000    -0.373000000    -2.387000000
C     5.439000000     0.188000000    -1.160000000
H     4.751000000    -0.063000000    -0.357000000
C     5.910000000     0.033000000    -3.546000000
H     5.660000000    -0.359000000    -4.528000000
C     6.961000000     0.988000000    -3.377000000
H     7.567000000     1.220000000    -4.250000000
C     7.253000000     1.521000000    -2.071000000
H     8.101000000     2.194000000    -1.981000000
C     6.503000000     1.096000000    -0.974000000
O     6.841000000     1.495000000     0.301000000
C     5.997000000     1.633000000     1.359000000
C     6.319000000     1.261000000     2.658000000
H     7.244000000     0.726000000     2.860000000
C     5.348000000     1.384000000     3.600000000
O     5.512000000     0.662000000     4.762000000
C     4.541000000     0.154000000     5.498000000
C     4.175000000     0.631000000     6.731000000
H     4.704000000     1.510000000     7.092000000
C     3.193000000     0.068000000     7.508000000
H     2.877000000     0.623000000     8.387000000
C     2.539000000    -1.028000000     7.067000000
H     1.707000000    -1.412000000     7.652000000
C     2.816000000    -1.543000000     5.854000000
C     3.841000000    -1.018000000     5.059000000
H     4.069000000    -1.421000000     4.076000000
C     0.322000000    -2.425000000    -0.151000000
H     0.045000000    -3.263000000    -0.785000000
C     0.028000000    -1.139000000    -0.545000000
H    -0.543000000    -1.112000000    -1.469000000
C     0.251000000    -0.051000000     0.306000000
C    -0.398000000     1.291000000     0.008000000
H    -1.485000000     1.189000000    -0.038000000
H    -0.020000000     1.951000000     0.791000000
H    -0.105000000     1.836000000    -0.892000000
C     1.015000000    -0.235000000     1.449000000
H     1.285000000     0.629000000     2.050000000
C     1.507000000    -1.481000000     1.726000000
H     2.139000000    -1.561000000     2.607000000
C     1.127000000    -2.593000000     0.942000000
C     1.627000000    -3.909000000     1.302000000
O     2.407000000    -4.177000000     2.177000000
O     1.297000000    -4.876000000     0.621000000
O     4.885000000    -6.258000000     5.592000000
H     4.942000000    -5.638000000     4.865000000
H     4.969000000    -7.118000000     5.180000000
O     1.482000000    -7.248000000     6.095000000
H     2.094000000    -7.974000000     6.207000000
H     1.453000000    -7.102000000     5.149000000
O     6.180000000    -7.381000000     1.351000000
H     5.400000000    -7.191000000     1.872000000
H     6.713000000    -6.589000000     1.420000000
O     7.720000000    -2.603000000    -1.238000000
H     7.166000000    -2.300000000    -0.519000000
H     7.116000000    -3.038000000    -1.839000000
O     1.509000000    -6.430000000     3.540000000
H     1.891000000    -5.625000000     3.190000000
H     1.002000000    -6.790000000     2.812000000
O     3.000000000    -9.069000000     0.868000000
H     2.095000000    -8.786000000     0.738000000
H     3.478000000    -8.262000000     1.056000000
O     4.782000000    -3.868000000    -0.364000000
H     4.028000000    -3.997000000     0.211000000
H     4.448000000    -3.325000000    -1.078000000
O     4.510000000    -8.299000000     3.871000000
H     4.051000000    -8.068000000     3.063000000
H     5.151000000    -8.958000000     3.601000000
O     3.527000000    -6.482000000     1.580000000
H     3.361000000    -6.501000000     0.638000000
H     3.172000000    -5.641000000     1.870000000
O    -3.213000000    -8.450000000     2.036000000
H    -4.006000000    -8.986000000     1.996000000
H    -3.532000000    -7.548000000     2.009000000
O     1.406000000    -7.264000000    -3.135000000
H     2.084000000    -7.743000000    -3.612000000
H     0.859000000    -6.879000000    -3.820000000
O     4.712000000    -4.231000000     3.776000000
H     4.028000000    -3.996000000     3.149000000
H     4.331000000    -4.035000000     4.632000000
O     0.267000000    -7.460000000     0.900000000
H    -0.657000000    -7.533000000     0.662000000
H     0.501000000    -6.559000000     0.681000000
O     7.143000000    -6.066000000    -1.771000000
H     6.240000000    -6.215000000    -1.491000000
H     7.077000000    -5.383000000    -2.439000000
O     6.011000000    -3.016000000     6.297000000
H     5.822000000    -2.533000000     5.492000000
H     5.161000000    -3.353000000     6.579000000
O     2.911000000    -6.136000000    -1.148000000
H     2.528000000    -6.401000000    -1.984000000
H     2.251000000    -5.567000000    -0.751000000
O     1.018000000   -10.701000000     2.673000000
H     1.683000000   -10.261000000     2.143000000
H     0.441000000   -11.119000000     2.034000000
O     4.115000000    -4.477000000     7.702000000
H     4.366000000    -5.129000000     7.047000000
H     3.182000000    -4.632000000     7.848000000
O     6.745000000    -4.425000000     1.332000000
H     6.058000000    -4.310000000     0.675000000
H     6.271000000    -4.570000000     2.151000000
