218
-1474.38373
C    -3.423000000    -2.905000000    -2.782000000
H    -3.421000000    -2.257000000    -3.655000000
C    -3.783000000    -2.409000000    -1.579000000
C    -3.769000000    -3.269000000    -0.456000000
H    -3.868000000    -2.834000000     0.535000000
C    -3.970000000    -0.900000000    -1.346000000
O    -4.332000000    -0.256000000    -2.613000000
H    -3.016000000    -0.505000000    -0.967000000
O    -4.940000000    -0.599000000    -0.345000000
C    -4.644000000     0.364000000     0.579000000
C    -4.287000000     0.011000000     1.857000000
H    -4.368000000    -1.033000000     2.147000000
C    -3.718000000     0.945000000     2.723000000
O    -3.098000000     0.478000000     3.811000000
C    -3.628000000     2.321000000     2.336000000
C    -2.999000000     3.321000000     3.256000000
H    -3.553000000     4.243000000     3.070000000
C    -1.551000000     3.469000000     2.991000000
C    -1.089000000     4.473000000     2.122000000
H    -1.744000000     5.162000000     1.596000000
H    -3.325000000     3.186000000     4.290000000
C    -4.093000000     2.694000000     1.073000000
H    -4.010000000     3.730000000     0.756000000
C    -4.593000000     1.707000000     0.114000000
C    -5.101000000     2.239000000    -1.233000000
H    -5.576000000     3.221000000    -1.185000000
H    -5.950000000     1.707000000    -1.669000000
C    -3.945000000     2.144000000    -2.281000000
C    -3.092000000     3.230000000    -2.479000000
H    -3.315000000     4.146000000    -1.937000000
C    -3.668000000     0.881000000    -2.864000000
C    -2.584000000     0.827000000    -3.743000000
H    -2.279000000    -0.132000000    -4.153000000
C    -1.785000000     1.946000000    -3.978000000
O    -0.678000000     1.730000000    -4.732000000
C     0.477000000     1.434000000    -3.901000000
C     1.202000000     0.162000000    -4.296000000
C     2.268000000    -0.242000000    -3.548000000
H     2.610000000     0.341000000    -2.697000000
C     0.848000000    -0.709000000    -5.313000000
H     0.078000000    -0.482000000    -6.046000000
O     1.352000000     2.623000000    -3.883000000
H     0.084000000     1.202000000    -2.901000000
C    -2.027000000     3.139000000    -3.328000000
C    -1.054000000     4.255000000    -3.583000000
H    -1.532000000     5.228000000    -3.454000000
H    -0.606000000     4.187000000    -4.576000000
C     0.131000000     4.277000000    -2.592000000
C     0.078000000     5.002000000    -1.350000000
H    -0.867000000     5.471000000    -1.089000000
C     1.142000000     3.365000000    -2.743000000
C     2.213000000     3.385000000    -1.817000000
H     3.143000000     2.890000000    -2.085000000
C     2.142000000     4.087000000    -0.664000000
O     3.189000000     4.048000000     0.210000000
C     3.002000000     3.077000000     1.227000000
C     4.308000000     2.382000000     1.556000000
C     5.147000000     1.904000000     0.598000000
H     4.847000000     2.138000000    -0.420000000
C     4.550000000     2.053000000     2.907000000
H     3.882000000     2.205000000     3.750000000
O     2.508000000     3.720000000     2.432000000
H     2.351000000     2.292000000     0.814000000
C     1.084000000     4.903000000    -0.428000000
C     0.867000000     5.558000000     0.899000000
H     0.125000000     6.351000000     0.790000000
H     1.768000000     5.979000000     1.349000000
C     0.309000000     4.547000000     1.931000000
C     1.195000000     3.668000000     2.605000000
C     0.713000000     2.713000000     3.516000000
H     1.346000000     2.038000000     4.087000000
C    -0.661000000     2.586000000     3.663000000
O    -1.143000000     1.442000000     4.347000000
C    -1.705000000     0.311000000     3.676000000
H    -1.453000000     0.252000000     2.607000000
C    -1.101000000    -0.901000000     4.262000000
C    -1.829000000    -2.111000000     4.396000000
H    -2.863000000    -2.148000000     4.063000000
C     0.233000000    -0.918000000     4.580000000
H     0.831000000    -0.019000000     4.455000000
C     0.891000000    -2.057000000     5.006000000
O     2.258000000    -2.142000000     5.154000000
C     0.186000000    -3.315000000     5.114000000
H     0.508000000    -4.303000000     5.431000000
C    -1.179000000    -3.298000000     4.804000000
O    -1.994000000    -4.385000000     4.948000000
C    -3.004000000    -4.825000000     4.012000000
C    -2.604000000    -4.966000000     2.726000000
H    -1.552000000    -4.841000000     2.482000000
C    -4.263000000    -4.955000000     4.376000000
H    -4.574000000    -4.873000000     5.414000000
C    -5.275000000    -5.243000000     3.457000000
H    -6.325000000    -5.338000000     3.721000000
C    -4.944000000    -5.436000000     2.128000000
H    -5.712000000    -5.823000000     1.463000000
C    -3.602000000    -5.281000000     1.789000000
O    -3.203000000    -5.480000000     0.505000000
C    -3.431000000    -4.638000000    -0.588000000
C    -3.088000000    -5.120000000    -1.822000000
H    -2.846000000    -6.176000000    -1.910000000
C    -3.114000000    -4.266000000    -2.958000000
O    -2.818000000    -4.769000000    -4.162000000
C    -2.220000000    -4.142000000    -5.227000000
C    -0.847000000    -3.798000000    -5.302000000
H    -0.218000000    -4.298000000    -4.570000000
C    -2.987000000    -3.887000000    -6.341000000
H    -4.024000000    -4.211000000    -6.323000000
C    -2.439000000    -3.340000000    -7.510000000
H    -3.096000000    -3.322000000    -8.375000000
C    -1.087000000    -2.925000000    -7.548000000
H    -0.510000000    -2.573000000    -8.400000000
C    -0.352000000    -3.172000000    -6.414000000
O     0.959000000    -2.804000000    -6.421000000
C     1.502000000    -2.002000000    -5.432000000
C     2.593000000    -2.365000000    -4.647000000
H     3.160000000    -3.282000000    -4.782000000
C     2.940000000    -1.452000000    -3.689000000
O     3.979000000    -1.799000000    -2.695000000
C     5.068000000    -0.971000000    -2.679000000
C     5.472000000    -0.495000000    -1.423000000
H     4.926000000    -0.675000000    -0.500000000
C     5.800000000    -0.594000000    -3.811000000
H     5.464000000    -1.023000000    -4.752000000
C     6.958000000     0.208000000    -3.671000000
H     7.519000000     0.570000000    -4.529000000
C     7.327000000     0.646000000    -2.407000000
H     8.171000000     1.327000000    -2.347000000
C     6.616000000     0.296000000    -1.334000000
O     7.054000000     0.648000000    -0.088000000
C     6.351000000     1.237000000     0.904000000
C     6.532000000     0.851000000     2.235000000
H     7.335000000     0.164000000     2.492000000
C     5.698000000     1.315000000     3.251000000
O     5.947000000     0.883000000     4.536000000
C     4.984000000     0.268000000     5.290000000
C     4.877000000     0.601000000     6.652000000
H     5.477000000     1.457000000     6.952000000
C     3.935000000     0.079000000     7.511000000
H     4.029000000     0.342000000     8.561000000
C     3.114000000    -0.901000000     6.984000000
H     2.290000000    -1.414000000     7.473000000
C     3.174000000    -1.204000000     5.623000000
C     4.092000000    -0.612000000     4.739000000
H     4.075000000    -0.894000000     3.689000000
C     0.673000000    -2.068000000    -0.933000000
H     0.453000000    -2.783000000    -1.722000000
C    -0.017000000    -0.790000000    -0.922000000
H    -0.617000000    -0.542000000    -1.794000000
C     0.249000000     0.102000000     0.072000000
C    -0.539000000     1.377000000     0.180000000
H    -1.611000000     1.201000000     0.069000000
H    -0.418000000     1.776000000     1.190000000
H    -0.180000000     2.039000000    -0.611000000
C     1.053000000    -0.300000000     1.177000000
H     1.252000000     0.359000000     2.019000000
C     1.679000000    -1.520000000     1.244000000
H     2.297000000    -1.801000000     2.093000000
C     1.555000000    -2.405000000     0.128000000
C     2.172000000    -3.786000000     0.220000000
O     2.573000000    -4.060000000     1.355000000
O     1.895000000    -4.659000000    -0.572000000
O     5.259000000    -8.115000000     4.358000000
H     4.391000000    -7.975000000     3.979000000
H     5.256000000    -9.032000000     4.630000000
O     2.724000000    -8.678000000    -2.186000000
H     2.291000000    -7.863000000    -2.442000000
H     2.370000000    -8.875000000    -1.319000000
O     7.331000000    -2.443000000     3.543000000
H     6.778000000    -2.945000000     4.142000000
H     6.730000000    -2.134000000     2.865000000
O     2.388000000    -7.763000000     4.138000000
H     2.104000000    -8.632000000     3.857000000
H     1.817000000    -7.159000000     3.663000000
O     7.234000000    -7.284000000     0.541000000
H     6.452000000    -6.758000000     0.372000000
H     6.937000000    -8.189000000     0.453000000
O     1.103000000    -5.994000000     2.681000000
H     1.608000000    -5.278000000     2.296000000
H     0.581000000    -6.336000000     1.956000000
O     2.244000000    -8.487000000     0.671000000
H     1.644000000    -7.748000000     0.566000000
H     3.115000000    -8.105000000     0.562000000
O     7.427000000    -4.057000000    -0.262000000
H     7.640000000    -4.769000000    -0.864000000
H     8.068000000    -4.141000000     0.445000000
O     4.080000000    -6.465000000     0.462000000
H     4.155000000    -6.173000000    -0.446000000
H     3.412000000    -5.895000000     0.842000000
O     4.592000000    -5.553000000    -2.124000000
H     3.725000000    -5.452000000    -2.519000000
H     5.202000000    -5.324000000    -2.825000000
O    -0.631000000    -6.671000000    -3.910000000
H    -1.031000000    -7.522000000    -4.090000000
H    -1.339000000    -6.041000000    -4.045000000
O     3.815000000    -4.161000000     3.890000000
H     3.222000000    -3.509000000     4.262000000
H     3.507000000    -4.279000000     2.991000000
O     0.284000000    -6.486000000    -0.047000000
H    -0.566000000    -6.084000000    -0.224000000
H     0.922000000    -5.851000000    -0.375000000
O     5.768000000    -8.222000000    -2.778000000
H     5.098000000    -8.554000000    -2.179000000
H     5.372000000    -7.447000000    -3.175000000
O     6.066000000    -3.720000000     5.557000000
H     6.035000000    -3.968000000     6.481000000
H     5.259000000    -4.078000000     5.187000000
O     2.433000000    -7.601000000    -5.133000000
H     1.709000000    -7.043000000    -4.849000000
H     3.210000000    -7.205000000    -4.738000000
O     1.719000000    -5.838000000    -2.840000000
H     0.821000000    -6.067000000    -3.077000000
H     1.626000000    -5.132000000    -2.200000000
O     3.452000000    -5.870000000     5.983000000
H     2.913000000    -6.546000000     5.571000000
H     3.658000000    -5.263000000     5.272000000
O     5.518000000    -2.613000000     1.293000000
H     6.096000000    -3.150000000     0.752000000
H     4.640000000    -2.945000000     1.107000000
