218
-1470.73365
C    -1.893000000     1.458000000     4.762000000
H    -2.057000000     2.362000000     4.181000000
C    -0.573000000     0.939000000     4.790000000
C    -0.448000000    -0.240000000     5.526000000
H     0.517000000    -0.741000000     5.550000000
C     0.590000000     1.534000000     3.995000000
O     0.491000000     2.973000000     3.939000000
H     0.527000000     1.151000000     2.966000000
O     1.867000000     1.013000000     4.416000000
C     2.754000000     0.654000000     3.460000000
C     3.092000000    -0.668000000     3.265000000
H     2.709000000    -1.392000000     3.980000000
C     4.081000000    -1.027000000     2.348000000
O     4.162000000    -2.316000000     2.029000000
C     4.543000000    -0.025000000     1.509000000
C     5.535000000    -0.312000000     0.393000000
H     6.225000000     0.534000000     0.420000000
C     4.825000000    -0.499000000    -0.987000000
C     4.606000000     0.589000000    -1.866000000
H     4.884000000     1.569000000    -1.486000000
H     6.167000000    -1.158000000     0.670000000
C     4.284000000     1.292000000     1.762000000
H     4.699000000     2.107000000     1.174000000
C     3.436000000     1.648000000     2.789000000
C     3.228000000     3.193000000     3.041000000
H     4.147000000     3.678000000     2.707000000
H     3.051000000     3.324000000     4.110000000
C     2.108000000     3.758000000     2.248000000
C     2.263000000     4.315000000     1.017000000
H     3.280000000     4.342000000     0.635000000
C     0.804000000     3.603000000     2.758000000
C    -0.261000000     3.997000000     1.953000000
H    -1.273000000     3.962000000     2.349000000
C    -0.068000000     4.633000000     0.749000000
O    -1.150000000     4.887000000    -0.069000000
C    -1.528000000     3.860000000    -1.024000000
C    -3.113000000     3.723000000    -1.071000000
C    -3.840000000     3.339000000    -2.237000000
H    -3.332000000     3.223000000    -3.191000000
C    -3.766000000     3.789000000     0.134000000
H    -3.292000000     3.934000000     1.102000000
O    -0.977000000     4.368000000    -2.338000000
H    -0.963000000     2.945000000    -0.792000000
C     1.267000000     4.838000000     0.252000000
C     1.531000000     5.259000000    -1.145000000
H     2.506000000     5.751000000    -1.147000000
H     0.809000000     6.049000000    -1.359000000
C     1.375000000     4.117000000    -2.172000000
C     2.526000000     3.357000000    -2.501000000
H     3.460000000     3.573000000    -1.989000000
C     0.166000000     3.721000000    -2.718000000
C     0.023000000     2.537000000    -3.445000000
H    -0.898000000     2.123000000    -3.847000000
C     1.128000000     1.868000000    -3.875000000
O     0.928000000     0.756000000    -4.600000000
C     1.086000000    -0.555000000    -4.028000000
C     0.020000000    -1.397000000    -4.648000000
C    -1.324000000    -0.920000000    -4.751000000
H    -1.359000000     0.165000000    -4.683000000
C     0.162000000    -2.761000000    -4.868000000
H     1.157000000    -3.193000000    -4.800000000
O     2.418000000    -1.167000000    -4.335000000
H     0.950000000    -0.450000000    -2.941000000
C     2.367000000     2.269000000    -3.358000000
C     3.569000000     1.541000000    -3.943000000
H     4.376000000     2.276000000    -3.960000000
H     3.316000000     1.248000000    -4.965000000
C     3.935000000     0.277000000    -3.056000000
C     3.341000000    -0.975000000    -3.289000000
C     3.560000000    -2.039000000    -2.411000000
H     3.191000000    -3.046000000    -2.589000000
C     4.310000000    -1.807000000    -1.237000000
O     4.409000000    -2.737000000    -0.246000000
C     3.515000000    -2.680000000     0.811000000
H     2.781000000    -1.890000000     0.591000000
C     2.688000000    -3.966000000     0.976000000
C     1.850000000    -4.074000000     2.126000000
H     1.944000000    -3.395000000     2.969000000
C     2.431000000    -4.826000000    -0.023000000
H     3.056000000    -4.833000000    -0.912000000
C     1.452000000    -5.796000000     0.037000000
O     1.257000000    -6.771000000    -0.862000000
C     0.696000000    -5.945000000     1.162000000
H     0.103000000    -6.855000000     1.205000000
C     0.867000000    -5.049000000     2.212000000
O     0.174000000    -5.291000000     3.411000000
C     0.235000000    -4.684000000     4.629000000
C    -0.505000000    -3.557000000     4.953000000
H    -1.193000000    -3.017000000     4.308000000
C     1.119000000    -5.189000000     5.569000000
H     1.870000000    -5.928000000     5.304000000
C     1.199000000    -4.692000000     6.832000000
H     1.946000000    -5.116000000     7.498000000
C     0.333000000    -3.719000000     7.287000000
H     0.331000000    -3.390000000     8.323000000
C    -0.576000000    -3.162000000     6.318000000
O    -1.421000000    -2.205000000     6.702000000
C    -1.549000000    -0.947000000     6.059000000
C    -2.779000000    -0.290000000     6.129000000
H    -3.587000000    -0.626000000     6.773000000
C    -2.952000000     0.910000000     5.459000000
O    -4.205000000     1.579000000     5.409000000
C    -4.478000000     2.696000000     4.662000000
C    -5.089000000     2.524000000     3.406000000
H    -5.251000000     1.513000000     3.042000000
C    -4.031000000     3.966000000     5.019000000
H    -3.421000000     3.993000000     5.919000000
C    -4.439000000     5.096000000     4.312000000
H    -4.249000000     6.092000000     4.704000000
C    -5.074000000     4.901000000     3.027000000
H    -5.423000000     5.726000000     2.411000000
C    -5.266000000     3.592000000     2.588000000
O    -5.808000000     3.398000000     1.338000000
C    -5.092000000     3.450000000     0.153000000
C    -5.845000000     3.115000000    -0.971000000
H    -6.854000000     2.736000000    -0.830000000
C    -5.211000000     3.081000000    -2.178000000
O    -5.955000000     2.783000000    -3.308000000
C    -5.269000000     2.037000000    -4.313000000
C    -4.667000000     0.756000000    -4.103000000
H    -4.632000000     0.369000000    -3.088000000
C    -5.275000000     2.591000000    -5.608000000
H    -5.827000000     3.520000000    -5.726000000
C    -4.709000000     1.875000000    -6.634000000
H    -4.812000000     2.167000000    -7.676000000
C    -4.144000000     0.652000000    -6.409000000
H    -3.684000000     0.079000000    -7.210000000
C    -4.062000000     0.107000000    -5.142000000
O    -3.644000000    -1.191000000    -5.000000000
C    -2.390000000    -1.772000000    -4.886000000
C    -2.157000000    -3.145000000    -4.980000000
H    -2.968000000    -3.868000000    -5.002000000
C    -0.917000000    -3.660000000    -4.946000000
O    -0.732000000    -5.083000000    -5.031000000
C     0.265000000    -5.642000000    -4.300000000
C     1.397000000    -6.080000000    -5.033000000
H     1.440000000    -5.738000000    -6.064000000
C     2.408000000    -6.783000000    -4.379000000
H     3.259000000    -7.204000000    -4.907000000
C     2.445000000    -7.021000000    -2.976000000
H     3.328000000    -7.482000000    -2.540000000
C     1.360000000    -6.471000000    -2.223000000
C     0.278000000    -5.826000000    -2.913000000
H    -0.590000000    -5.394000000    -2.421000000
C    -3.146000000    -0.115000000    -0.552000000
H    -4.103000000     0.331000000    -0.295000000
C    -1.923000000     0.557000000    -0.162000000
H    -2.008000000     1.547000000     0.279000000
C    -0.698000000     0.004000000    -0.375000000
C     0.564000000     0.783000000    -0.102000000
H     1.298000000     0.074000000     0.285000000
H     0.994000000     1.279000000    -0.974000000
H     0.468000000     1.601000000     0.616000000
C    -0.650000000    -1.277000000    -0.981000000
H     0.305000000    -1.734000000    -1.229000000
C    -1.814000000    -1.927000000    -1.353000000
H    -1.661000000    -2.900000000    -1.813000000
C    -3.063000000    -1.371000000    -1.171000000
C    -4.334000000    -2.212000000    -1.398000000
O    -4.344000000    -3.428000000    -1.434000000
O    -5.462000000    -1.644000000    -1.439000000
O    -6.625000000    -6.185000000    -3.224000000
H    -7.382000000    -6.754000000    -3.090000000
H    -5.990000000    -6.472000000    -2.567000000
O    -4.726000000    -5.165000000     3.772000000
H    -4.544000000    -4.251000000     3.990000000
H    -4.087000000    -5.381000000     3.092000000
O    -7.035000000    -4.904000000    -6.061000000
H    -6.652000000    -4.361000000    -5.372000000
H    -7.044000000    -5.787000000    -5.692000000
O    -6.486000000    -3.459000000    -3.702000000
H    -6.214000000    -3.070000000    -2.871000000
H    -6.346000000    -4.398000000    -3.584000000
O    -3.425000000    -5.605000000    -3.196000000
H    -2.788000000    -5.961000000    -2.577000000
H    -3.832000000    -4.875000000    -2.728000000
O    -8.285000000    -4.463000000     0.552000000
H    -8.905000000    -3.855000000     0.149000000
H    -8.795000000    -4.915000000     1.224000000
O    -2.642000000    -7.838000000    -1.070000000
H    -1.874000000    -7.971000000    -0.515000000
H    -2.910000000    -6.936000000    -0.896000000
O    -6.007000000    -5.822000000    -0.102000000
H    -6.920000000    -5.537000000    -0.073000000
H    -5.512000000    -5.025000000    -0.292000000
O    -2.374000000    -4.785000000     2.247000000
H    -2.075000000    -3.887000000     2.100000000
H    -1.715000000    -5.164000000     2.829000000
O    -9.482000000    -2.098000000    -0.173000000
H   -10.305000000    -1.617000000    -0.254000000
H    -8.806000000    -1.421000000    -0.185000000
O    -7.684000000    -0.316000000    -3.438000000
H    -7.937000000    -0.201000000    -4.354000000
H    -6.796000000    -0.670000000    -3.478000000
O    -9.058000000    -3.391000000    -4.020000000
H    -8.136000000    -3.436000000    -3.766000000
H    -9.175000000    -2.498000000    -4.343000000
O    -8.402000000     0.779000000     1.581000000
H    -7.889000000     0.260000000     2.201000000
H    -7.895000000     0.752000000     0.769000000
O    -6.523000000    -2.525000000     1.045000000
H    -7.136000000    -3.233000000     0.848000000
H    -6.043000000    -2.390000000     0.228000000
O    -7.344000000    -0.161000000    -0.640000000
H    -6.782000000    -0.853000000    -0.987000000
H    -7.470000000     0.437000000    -1.376000000
O    -4.102000000    -1.206000000     2.243000000
H    -4.027000000    -1.852000000     2.946000000
H    -4.894000000    -1.460000000     1.768000000
O    -1.565000000    -2.245000000     1.994000000
H    -1.058000000    -1.950000000     1.238000000
H    -2.431000000    -1.856000000     1.868000000
O    -7.061000000    -0.875000000     3.214000000
H    -6.364000000    -1.250000000     3.753000000
H    -7.079000000    -1.423000000     2.430000000
O    -2.912000000    -5.328000000    -0.416000000
H    -3.415000000    -4.601000000    -0.782000000
H    -2.927000000    -5.178000000     0.529000000
