218
-1443.48370
C    -1.987000000     0.789000000     4.332000000
H    -2.001000000     1.872000000     4.418000000
C    -0.786000000     0.104000000     4.245000000
C    -0.725000000    -1.304000000     4.260000000
H     0.221000000    -1.839000000     4.253000000
C     0.481000000     0.890000000     3.881000000
O     0.377000000     2.316000000     4.169000000
H     0.459000000     0.776000000     2.788000000
O     1.727000000     0.313000000     4.429000000
C     2.734000000     0.124000000     3.534000000
C     3.076000000    -1.219000000     3.201000000
H     2.512000000    -2.053000000     3.610000000
C     4.039000000    -1.439000000     2.264000000
O     4.252000000    -2.749000000     1.827000000
C     4.719000000    -0.381000000     1.648000000
C     5.728000000    -0.643000000     0.498000000
H     6.305000000     0.278000000     0.598000000
C     4.952000000    -0.737000000    -0.824000000
C     4.794000000     0.457000000    -1.593000000
H     5.325000000     1.333000000    -1.227000000
H     6.334000000    -1.544000000     0.615000000
C     4.429000000     0.927000000     2.076000000
H     5.007000000     1.797000000     1.774000000
C     3.403000000     1.158000000     2.969000000
C     3.227000000     2.551000000     3.440000000
H     4.093000000     3.190000000     3.253000000
H     3.066000000     2.573000000     4.520000000
C     2.132000000     3.313000000     2.732000000
C     2.368000000     3.985000000     1.540000000
H     3.362000000     3.905000000     1.108000000
C     0.752000000     3.177000000     3.156000000
C    -0.240000000     3.792000000     2.411000000
H    -1.244000000     3.738000000     2.823000000
C     0.081000000     4.505000000     1.246000000
O    -0.932000000     4.990000000     0.522000000
C    -1.378000000     4.062000000    -0.492000000
C    -2.876000000     4.080000000    -0.716000000
C    -3.478000000     3.970000000    -1.980000000
H    -2.801000000     3.922000000    -2.829000000
C    -3.627000000     4.056000000     0.401000000
H    -3.110000000     4.130000000     1.354000000
O    -0.771000000     4.505000000    -1.759000000
H    -0.995000000     3.042000000    -0.342000000
C     1.380000000     4.658000000     0.772000000
C     1.764000000     5.225000000    -0.562000000
H     2.751000000     5.690000000    -0.532000000
H     1.097000000     6.022000000    -0.896000000
C     1.550000000     4.164000000    -1.644000000
C     2.683000000     3.506000000    -2.100000000
H     3.644000000     3.571000000    -1.596000000
C     0.368000000     3.915000000    -2.255000000
C     0.246000000     3.005000000    -3.332000000
H    -0.764000000     2.638000000    -3.498000000
C     1.426000000     2.418000000    -3.818000000
O     1.180000000     1.302000000    -4.625000000
C     1.313000000     0.001000000    -4.068000000
C     0.025000000    -0.812000000    -4.283000000
C    -1.216000000    -0.132000000    -4.559000000
H    -1.265000000     0.954000000    -4.594000000
C    -0.031000000    -2.222000000    -4.157000000
H     0.909000000    -2.744000000    -3.995000000
O     2.538000000    -0.679000000    -4.401000000
H     1.185000000     0.149000000    -2.986000000
C     2.625000000     2.669000000    -3.205000000
C     3.853000000     1.861000000    -3.571000000
H     4.728000000     2.493000000    -3.406000000
H     3.664000000     1.573000000    -4.608000000
C     4.007000000     0.506000000    -2.781000000
C     3.488000000    -0.702000000    -3.339000000
C     3.648000000    -1.902000000    -2.613000000
H     3.204000000    -2.828000000    -2.970000000
C     4.354000000    -1.894000000    -1.353000000
O     4.303000000    -3.039000000    -0.640000000
C     3.481000000    -3.092000000     0.592000000
H     2.761000000    -2.276000000     0.431000000
C     2.753000000    -4.451000000     0.803000000
C     2.443000000    -4.957000000     2.095000000
H     2.811000000    -4.425000000     2.969000000
C     2.235000000    -5.210000000    -0.294000000
H     2.467000000    -4.845000000    -1.291000000
C     1.333000000    -6.241000000    -0.163000000
O     0.743000000    -6.961000000    -1.204000000
C     1.031000000    -6.667000000     1.150000000
H     0.280000000    -7.394000000     1.447000000
C     1.494000000    -5.998000000     2.302000000
O     1.178000000    -6.430000000     3.629000000
C     0.566000000    -5.683000000     4.603000000
C    -0.401000000    -4.803000000     4.198000000
H    -0.757000000    -4.781000000     3.171000000
C     1.204000000    -5.601000000     5.820000000
H     2.109000000    -6.176000000     5.998000000
C     0.581000000    -4.919000000     6.839000000
H     0.928000000    -4.909000000     7.870000000
C    -0.520000000    -4.124000000     6.525000000
H    -1.005000000    -3.571000000     7.325000000
C    -0.979000000    -4.116000000     5.172000000
O    -2.041000000    -3.280000000     4.878000000
C    -1.975000000    -1.940000000     4.512000000
C    -3.208000000    -1.256000000     4.570000000
H    -4.138000000    -1.733000000     4.868000000
C    -3.175000000     0.116000000     4.486000000
O    -4.361000000     0.745000000     4.566000000
C    -4.542000000     2.076000000     4.208000000
C    -5.100000000     2.409000000     2.929000000
H    -5.530000000     1.726000000     2.201000000
C    -4.253000000     3.147000000     5.042000000
H    -3.909000000     2.819000000     6.019000000
C    -4.325000000     4.461000000     4.571000000
H    -4.019000000     5.296000000     5.195000000
C    -4.829000000     4.786000000     3.339000000
H    -4.977000000     5.816000000     3.027000000
C    -5.325000000     3.697000000     2.572000000
O    -5.827000000     4.091000000     1.364000000
C    -5.032000000     4.133000000     0.251000000
C    -5.683000000     4.090000000    -0.961000000
H    -6.770000000     4.078000000    -0.960000000
C    -4.892000000     3.978000000    -2.124000000
O    -5.464000000     3.908000000    -3.376000000
C    -4.826000000     3.294000000    -4.473000000
C    -4.389000000     1.974000000    -4.233000000
H    -4.632000000     1.545000000    -3.265000000
C    -4.842000000     3.756000000    -5.777000000
H    -5.278000000     4.736000000    -5.955000000
C    -4.228000000     3.015000000    -6.828000000
H    -4.212000000     3.378000000    -7.852000000
C    -3.828000000     1.707000000    -6.569000000
H    -3.367000000     1.138000000    -7.373000000
C    -3.882000000     1.179000000    -5.255000000
O    -3.668000000    -0.188000000    -4.999000000
C    -2.427000000    -0.822000000    -4.752000000
C    -2.415000000    -2.165000000    -4.578000000
H    -3.283000000    -2.788000000    -4.776000000
C    -1.272000000    -2.905000000    -4.324000000
O    -1.414000000    -4.263000000    -4.367000000
C    -0.387000000    -5.073000000    -4.046000000
C     0.723000000    -5.169000000    -4.943000000
H     0.661000000    -4.570000000    -5.847000000
C     1.801000000    -5.978000000    -4.516000000
H     2.669000000    -6.090000000    -5.160000000
C     1.759000000    -6.528000000    -3.295000000
H     2.677000000    -6.968000000    -2.914000000
C     0.707000000    -6.467000000    -2.458000000
C    -0.372000000    -5.750000000    -2.858000000
H    -1.260000000    -5.655000000    -2.240000000
C    -2.816000000    -0.862000000    -0.228000000
H    -3.793000000    -0.546000000     0.129000000
C    -1.744000000     0.062000000    -0.169000000
H    -2.053000000     1.063000000     0.124000000
C    -0.481000000    -0.360000000    -0.447000000
C     0.790000000     0.470000000    -0.174000000
H     1.068000000     1.132000000    -0.997000000
H     0.609000000     1.163000000     0.649000000
H     1.628000000    -0.200000000     0.029000000
C    -0.225000000    -1.602000000    -0.912000000
H     0.776000000    -1.976000000    -1.113000000
C    -1.290000000    -2.520000000    -1.122000000
H    -1.161000000    -3.569000000    -1.378000000
C    -2.636000000    -2.182000000    -0.747000000
C    -3.879000000    -3.082000000    -0.818000000
O    -3.773000000    -4.148000000    -1.385000000
O    -4.975000000    -2.611000000    -0.572000000
O    -5.240000000    -4.273000000    -6.002000000
H    -4.954000000    -4.601000000    -5.149000000
H    -6.192000000    -4.210000000    -5.927000000
O    -4.137000000    -5.205000000    -3.658000000
H    -4.337000000    -4.907000000    -2.771000000
H    -3.200000000    -5.038000000    -3.760000000
O    -3.893000000    -8.313000000    -3.925000000
H    -4.133000000    -7.466000000    -3.550000000
H    -2.947000000    -8.253000000    -4.064000000
O    -7.270000000     1.783000000    -2.574000000
H    -6.602000000     1.106000000    -2.471000000
H    -6.856000000     2.446000000    -3.126000000
O    -7.540000000    -7.070000000    -2.740000000
H    -6.773000000    -6.836000000    -2.217000000
H    -8.284000000    -6.908000000    -2.160000000
O    -2.754000000    -8.031000000    -0.994000000
H    -1.839000000    -8.155000000    -1.244000000
H    -2.762000000    -7.199000000    -0.520000000
O    -5.873000000    -5.719000000    -0.770000000
H    -6.504000000    -5.030000000    -0.562000000
H    -5.033000000    -5.265000000    -0.829000000
O    -6.028000000    -5.912000000     2.504000000
H    -5.492000000    -5.551000000     3.210000000
H    -6.172000000    -5.174000000     1.912000000
O    -2.647000000    -5.731000000     0.345000000
H    -3.166000000    -5.325000000    -0.350000000
H    -2.642000000    -5.083000000     1.049000000
O    -9.296000000    -0.858000000    -0.697000000
H   -10.133000000    -1.256000000    -0.455000000
H    -8.743000000    -1.598000000    -0.948000000
O    -8.985000000    -3.596000000     1.309000000
H    -8.578000000    -2.959000000     1.896000000
H    -8.538000000    -3.471000000     0.472000000
O    -7.108000000    -1.709000000    -4.131000000
H    -6.612000000    -1.471000000    -4.915000000
H    -8.014000000    -1.486000000    -4.344000000
O    -7.918000000    -4.241000000    -3.479000000
H    -7.489000000    -3.548000000    -3.981000000
H    -7.609000000    -5.054000000    -3.880000000
O    -5.271000000    -8.920000000    -0.346000000
H    -4.391000000    -8.804000000    -0.702000000
H    -5.571000000    -8.032000000    -0.153000000
O    -7.559000000    -3.076000000    -0.839000000
H    -7.816000000    -3.605000000    -1.593000000
H    -6.617000000    -2.946000000    -0.947000000
O    -5.984000000    -0.415000000    -1.685000000
H    -5.527000000    -1.060000000    -1.145000000
H    -6.605000000    -0.930000000    -2.200000000
O    -5.624000000    -2.911000000     2.066000000
H    -6.295000000    -2.615000000     2.681000000
H    -5.748000000    -2.361000000     1.293000000
O    -2.802000000    -3.778000000     2.099000000
H    -3.734000000    -3.564000000     2.045000000
H    -2.371000000    -2.933000000     2.231000000
O    -3.079000000    -8.619000000     2.092000000
H    -3.024000000    -9.383000000     1.518000000
H    -2.961000000    -7.871000000     1.506000000
