218
-1490.16002
C    -3.258000000     0.400000000     3.953000000
H    -3.636000000     1.190000000     3.310000000
C    -1.962000000     0.510000000     4.456000000
C    -1.548000000    -0.499000000     5.379000000
H    -0.569000000    -0.449000000     5.850000000
C    -0.986000000     1.561000000     3.885000000
O    -1.673000000     2.830000000     3.641000000
H    -0.616000000     1.131000000     2.943000000
O     0.160000000     1.789000000     4.723000000
C     1.401000000     1.711000000     4.215000000
C     2.025000000     0.467000000     3.937000000
H     1.579000000    -0.417000000     4.386000000
C     3.221000000     0.459000000     3.220000000
O     3.798000000    -0.769000000     3.016000000
C     3.684000000     1.643000000     2.580000000
C     4.939000000     1.495000000     1.747000000
H     5.375000000     2.496000000     1.751000000
C     4.685000000     1.143000000     0.324000000
C     4.633000000     2.169000000    -0.659000000
H     4.594000000     3.179000000    -0.258000000
H     5.690000000     0.854000000     2.215000000
C     2.984000000     2.808000000     2.814000000
H     3.326000000     3.741000000     2.375000000
C     1.887000000     2.871000000     3.638000000
C     1.040000000     4.191000000     3.688000000
H     1.696000000     5.059000000     3.599000000
H     0.531000000     4.218000000     4.654000000
C     0.029000000     4.220000000     2.500000000
C     0.405000000     4.862000000     1.321000000
H     1.404000000     5.283000000     1.245000000
C    -1.277000000     3.720000000     2.669000000
C    -2.151000000     3.784000000     1.619000000
H    -3.114000000     3.283000000     1.686000000
C    -1.773000000     4.324000000     0.389000000
O    -2.555000000     4.227000000    -0.718000000
C    -2.338000000     3.108000000    -1.627000000
C    -3.631000000     2.262000000    -1.910000000
C    -3.898000000     1.844000000    -3.229000000
H    -3.306000000     2.212000000    -4.064000000
C    -4.577000000     2.005000000    -0.896000000
H    -4.389000000     2.321000000     0.127000000
O    -1.809000000     3.596000000    -2.852000000
H    -1.545000000     2.450000000    -1.244000000
C    -0.489000000     4.885000000     0.241000000
C    -0.075000000     5.452000000    -1.081000000
H     0.591000000     6.310000000    -0.962000000
H    -0.957000000     5.956000000    -1.481000000
C     0.383000000     4.496000000    -2.112000000
C     1.766000000     4.224000000    -2.164000000
H     2.305000000     4.721000000    -1.361000000
C    -0.421000000     3.675000000    -2.961000000
C     0.177000000     2.873000000    -3.911000000
H    -0.420000000     2.241000000    -4.564000000
C     1.552000000     2.663000000    -3.845000000
O     2.009000000     1.619000000    -4.646000000
C     2.229000000     0.319000000    -3.945000000
C     1.686000000    -0.954000000    -4.569000000
C     0.379000000    -0.881000000    -5.149000000
H    -0.042000000     0.108000000    -5.316000000
C     2.353000000    -2.187000000    -4.462000000
H     3.323000000    -2.178000000    -3.972000000
O     3.629000000     0.171000000    -3.589000000
H     1.697000000     0.401000000    -2.986000000
C     2.354000000     3.306000000    -2.968000000
C     3.893000000     3.028000000    -2.941000000
H     4.432000000     3.882000000    -2.527000000
H     4.282000000     2.829000000    -3.942000000
C     4.267000000     1.810000000    -1.986000000
C     3.994000000     0.511000000    -2.355000000
C     4.174000000    -0.509000000    -1.391000000
H     3.967000000    -1.533000000    -1.691000000
C     4.453000000    -0.150000000    -0.086000000
O     4.527000000    -1.231000000     0.817000000
C     3.434000000    -1.376000000     1.770000000
H     2.546000000    -0.859000000     1.379000000
C     3.014000000    -2.838000000     1.872000000
C     2.092000000    -3.328000000     2.833000000
H     1.630000000    -2.649000000     3.544000000
C     3.403000000    -3.643000000     0.760000000
H     4.011000000    -3.301000000    -0.074000000
C     3.044000000    -5.039000000     0.815000000
O     3.195000000    -5.885000000    -0.258000000
C     2.169000000    -5.504000000     1.800000000
H     1.992000000    -6.573000000     1.885000000
C     1.720000000    -4.664000000     2.810000000
O     0.821000000    -5.231000000     3.743000000
C     0.636000000    -4.680000000     4.998000000
C    -0.421000000    -3.823000000     5.127000000
H    -0.989000000    -3.568000000     4.236000000
C     1.424000000    -5.108000000     6.097000000
H     2.295000000    -5.747000000     5.978000000
C     1.018000000    -4.750000000     7.371000000
H     1.620000000    -5.117000000     8.199000000
C    -0.074000000    -3.863000000     7.462000000
H    -0.490000000    -3.563000000     8.421000000
C    -0.745000000    -3.262000000     6.374000000
O    -1.835000000    -2.490000000     6.565000000
C    -2.364000000    -1.538000000     5.758000000
C    -3.639000000    -1.643000000     5.271000000
H    -4.277000000    -2.504000000     5.456000000
C    -4.126000000    -0.580000000     4.501000000
O    -5.482000000    -0.604000000     4.238000000
C    -6.072000000     0.338000000     3.369000000
C    -6.129000000     0.113000000     2.011000000
H    -5.791000000    -0.869000000     1.691000000
C    -6.355000000     1.634000000     3.867000000
H    -6.243000000     1.883000000     4.919000000
C    -6.776000000     2.635000000     2.970000000
H    -7.046000000     3.570000000     3.455000000
C    -6.868000000     2.386000000     1.592000000
H    -7.281000000     3.135000000     0.921000000
C    -6.565000000     1.125000000     1.154000000
O    -6.629000000     0.872000000    -0.229000000
C    -5.667000000     1.167000000    -1.154000000
C    -5.859000000     0.701000000    -2.432000000
H    -6.602000000    -0.043000000    -2.710000000
C    -4.992000000     1.033000000    -3.481000000
O    -5.219000000     0.547000000    -4.769000000
C    -4.204000000     0.270000000    -5.670000000
C    -3.227000000    -0.652000000    -5.314000000
H    -3.088000000    -0.963000000    -4.282000000
C    -4.164000000     0.921000000    -6.978000000
H    -4.968000000     1.560000000    -7.334000000
C    -3.127000000     0.634000000    -7.802000000
H    -3.170000000     0.943000000    -8.843000000
C    -2.169000000    -0.282000000    -7.422000000
H    -1.297000000    -0.587000000    -7.995000000
C    -2.297000000    -0.966000000    -6.228000000
O    -1.507000000    -2.109000000    -6.069000000
C    -0.243000000    -2.065000000    -5.577000000
C     0.455000000    -3.298000000    -5.397000000
H    -0.019000000    -4.250000000    -5.624000000
C     1.702000000    -3.331000000    -4.867000000
O     2.270000000    -4.567000000    -4.739000000
C     3.155000000    -4.883000000    -3.761000000
C     4.476000000    -5.085000000    -4.118000000
H     4.750000000    -4.881000000    -5.150000000
C     5.393000000    -5.351000000    -3.146000000
H     6.457000000    -5.515000000    -3.293000000
C     4.962000000    -5.657000000    -1.840000000
H     5.594000000    -6.131000000    -1.092000000
C     3.660000000    -5.526000000    -1.529000000
C     2.781000000    -5.053000000    -2.419000000
H     1.751000000    -4.883000000    -2.116000000
C    -1.458000000    -1.569000000     1.290000000
H    -2.318000000    -1.468000000     1.947000000
C    -1.026000000    -0.369000000     0.821000000
H    -1.585000000     0.506000000     1.144000000
C     0.110000000    -0.304000000    -0.019000000
C     0.614000000     1.109000000    -0.307000000
H     1.640000000     1.198000000     0.055000000
H     0.536000000     1.337000000    -1.372000000
H     0.029000000     1.857000000     0.232000000
C     0.642000000    -1.500000000    -0.494000000
H     1.549000000    -1.443000000    -1.089000000
C     0.151000000    -2.723000000    -0.076000000
H     0.586000000    -3.680000000    -0.356000000
C    -0.911000000    -2.776000000     0.919000000
C    -1.612000000    -4.052000000     1.282000000
O    -1.340000000    -5.096000000     0.788000000
O    -2.623000000    -3.970000000     2.013000000
O    -1.912000000    -1.904000000    -2.297000000
H    -1.821000000    -2.856000000    -2.257000000
H    -1.669000000    -1.603000000    -1.421000000
O    -3.500000000   -10.099000000     0.815000000
H    -4.223000000    -9.702000000     1.300000000
H    -2.853000000   -10.317000000     1.485000000
O    -0.728000000    -8.472000000     4.566000000
H    -1.062000000    -7.656000000     4.939000000
H    -0.822000000    -8.358000000     3.620000000
O    -2.060000000    -8.703000000    -3.002000000
H    -1.463000000    -7.998000000    -2.753000000
H    -1.940000000    -9.369000000    -2.325000000
O    -4.903000000    -8.258000000    -1.147000000
H    -4.369000000    -7.482000000    -0.973000000
H    -4.454000000    -8.966000000    -0.685000000
O    -2.549000000    -6.563000000     5.958000000
H    -2.627000000    -6.359000000     5.027000000
H    -3.254000000    -6.066000000     6.373000000
O    -0.283000000    -6.381000000    -1.306000000
H     0.255000000    -7.096000000    -0.967000000
H    -0.638000000    -5.957000000    -0.524000000
O    -5.748000000    -6.179000000     1.552000000
H    -5.159000000    -5.640000000     2.081000000
H    -6.234000000    -5.550000000     1.019000000
O    -2.364000000    -4.664000000    -2.498000000
H    -1.626000000    -5.273000000    -2.459000000
H    -2.982000000    -4.995000000    -1.846000000
O    -5.881000000    -3.416000000    -3.312000000
H    -6.115000000    -3.102000000    -4.185000000
H    -5.486000000    -4.275000000    -3.465000000
O    -4.700000000    -1.915000000    -1.334000000
H    -3.779000000    -1.771000000    -1.551000000
H    -5.062000000    -2.351000000    -2.106000000
O    -8.032000000    -2.810000000     2.302000000
H    -8.166000000    -1.977000000     1.849000000
H    -7.081000000    -2.903000000     2.357000000
O    -3.542000000    -5.740000000     3.489000000
H    -2.968000000    -5.056000000     3.144000000
H    -3.274000000    -6.534000000     3.027000000
O    -3.708000000    -6.044000000    -0.337000000
H    -2.906000000    -5.887000000     0.162000000
H    -4.388000000    -5.581000000     0.152000000
O    -1.069000000    -7.225000000     2.120000000
H    -1.239000000    -6.302000000     1.934000000
H    -0.253000000    -7.416000000     1.657000000
O    -5.661000000    -8.819000000     2.315000000
H    -5.959000000    -8.009000000     1.901000000
H    -6.384000000    -9.074000000     2.889000000
O    -5.142000000    -3.038000000     1.105000000
H    -4.928000000    -2.595000000     0.284000000
H    -4.293000000    -3.279000000     1.476000000
O    -5.740000000    -4.422000000     4.254000000
H    -4.930000000    -4.440000000     3.744000000
H    -5.451000000    -4.457000000     5.165000000
O     0.312000000    -8.630000000     0.147000000
H     0.952000000    -9.321000000     0.319000000
H    -0.495000000    -8.945000000     0.554000000
