218
-1459.56319
C    -3.925000000    -0.261000000     3.279000000
H    -4.243000000     0.657000000     2.791000000
C    -2.689000000    -0.313000000     3.950000000
C    -2.338000000    -1.472000000     4.668000000
H    -1.311000000    -1.469000000     5.024000000
C    -1.715000000     0.850000000     3.813000000
O    -2.368000000     2.128000000     3.748000000
H    -1.323000000     0.669000000     2.801000000
O    -0.767000000     0.779000000     4.868000000
C     0.578000000     1.017000000     4.572000000
C     1.467000000    -0.125000000     4.516000000
H     1.152000000    -1.113000000     4.842000000
C     2.755000000     0.021000000     3.956000000
O     3.509000000    -1.057000000     3.598000000
C     3.209000000     1.334000000     3.568000000
C     4.474000000     1.558000000     2.806000000
H     4.836000000     2.560000000     3.046000000
C     4.247000000     1.357000000     1.351000000
C     4.197000000     2.432000000     0.476000000
H     4.279000000     3.459000000     0.822000000
H     5.260000000     0.938000000     3.241000000
C     2.339000000     2.418000000     3.691000000
H     2.635000000     3.377000000     3.276000000
C     1.023000000     2.269000000     4.118000000
C     0.216000000     3.504000000     4.210000000
H     0.894000000     4.349000000     4.346000000
H    -0.324000000     3.356000000     5.148000000
C    -0.682000000     3.707000000     2.951000000
C    -0.202000000     4.565000000     1.899000000
H     0.811000000     4.958000000     1.883000000
C    -1.839000000     2.980000000     2.826000000
C    -2.565000000     3.163000000     1.661000000
H    -3.478000000     2.581000000     1.562000000
C    -2.155000000     3.987000000     0.589000000
O    -2.803000000     3.913000000    -0.610000000
C    -2.389000000     3.137000000    -1.716000000
C    -3.648000000     2.578000000    -2.413000000
C    -3.528000000     2.018000000    -3.662000000
H    -2.602000000     2.089000000    -4.227000000
C    -4.824000000     2.222000000    -1.743000000
H    -4.908000000     2.548000000    -0.709000000
O    -1.696000000     3.957000000    -2.688000000
H    -1.750000000     2.300000000    -1.396000000
C    -0.908000000     4.650000000     0.695000000
C    -0.475000000     5.527000000    -0.443000000
H     0.324000000     6.196000000    -0.116000000
H    -1.331000000     6.021000000    -0.908000000
C     0.224000000     4.638000000    -1.423000000
C     1.601000000     4.466000000    -1.224000000
H     2.096000000     4.897000000    -0.357000000
C    -0.351000000     3.951000000    -2.487000000
C     0.448000000     3.249000000    -3.410000000
H     0.049000000     2.671000000    -4.240000000
C     1.768000000     3.048000000    -3.097000000
O     2.491000000     2.167000000    -3.877000000
C     2.787000000     0.880000000    -3.251000000
C     2.196000000    -0.315000000    -4.109000000
C     1.399000000    -0.154000000    -5.256000000
H     1.070000000     0.864000000    -5.454000000
C     2.581000000    -1.624000000    -3.677000000
H     3.130000000    -1.783000000    -2.752000000
O     4.150000000     0.786000000    -2.835000000
H     2.100000000     0.860000000    -2.393000000
C     2.393000000     3.727000000    -2.052000000
C     3.853000000     3.504000000    -1.754000000
H     4.402000000     4.368000000    -1.373000000
H     4.299000000     3.389000000    -2.744000000
C     4.153000000     2.257000000    -0.936000000
C     4.333000000     0.948000000    -1.488000000
C     4.527000000    -0.101000000    -0.620000000
H     4.599000000    -1.129000000    -0.963000000
C     4.435000000     0.096000000     0.762000000
O     4.553000000    -1.091000000     1.493000000
C     3.398000000    -1.539000000     2.265000000
H     2.510000000    -1.105000000     1.782000000
C     3.247000000    -3.082000000     2.123000000
C     2.513000000    -3.824000000     3.026000000
H     1.941000000    -3.307000000     3.793000000
C     3.915000000    -3.803000000     1.178000000
H     4.596000000    -3.363000000     0.455000000
C     3.814000000    -5.139000000     1.095000000
O     4.234000000    -5.816000000    -0.028000000
C     3.025000000    -5.914000000     1.998000000
H     2.926000000    -6.995000000     1.944000000
C     2.357000000    -5.201000000     2.959000000
O     1.571000000    -5.884000000     3.812000000
C     0.687000000    -5.205000000     4.695000000
C    -0.604000000    -4.943000000     4.374000000
H    -0.995000000    -5.276000000     3.416000000
C     1.196000000    -4.989000000     5.968000000
H     2.213000000    -5.332000000     6.142000000
C     0.271000000    -4.455000000     6.885000000
H     0.556000000    -4.215000000     7.906000000
C    -0.999000000    -4.075000000     6.505000000
H    -1.662000000    -3.542000000     7.182000000
C    -1.468000000    -4.262000000     5.241000000
O    -2.747000000    -3.867000000     4.909000000
C    -3.120000000    -2.639000000     4.486000000
C    -4.306000000    -2.567000000     3.755000000
H    -4.875000000    -3.460000000     3.512000000
C    -4.713000000    -1.392000000     3.211000000
O    -5.816000000    -1.340000000     2.391000000
C    -6.350000000    -0.201000000     1.826000000
C    -6.492000000    -0.166000000     0.423000000
H    -6.129000000    -1.004000000    -0.166000000
C    -6.744000000     0.885000000     2.603000000
H    -6.626000000     0.799000000     3.680000000
C    -7.449000000     1.982000000     2.006000000
H    -7.749000000     2.746000000     2.718000000
C    -7.543000000     2.073000000     0.602000000
H    -7.820000000     3.008000000     0.122000000
C    -7.037000000     0.984000000    -0.128000000
O    -6.939000000     1.185000000    -1.553000000
C    -5.818000000     1.405000000    -2.279000000
C    -5.675000000     0.858000000    -3.506000000
H    -6.438000000     0.249000000    -3.985000000
C    -4.553000000     1.240000000    -4.245000000
O    -4.363000000     0.585000000    -5.418000000
C    -3.268000000     0.732000000    -6.260000000
C    -2.288000000    -0.221000000    -6.206000000
H    -2.496000000    -1.123000000    -5.636000000
C    -3.054000000     1.861000000    -7.068000000
H    -3.816000000     2.635000000    -7.033000000
C    -1.781000000     2.113000000    -7.635000000
H    -1.706000000     2.950000000    -8.325000000
C    -0.807000000     1.114000000    -7.563000000
H     0.157000000     1.228000000    -8.052000000
C    -1.015000000    -0.091000000    -6.861000000
O    -0.142000000    -1.110000000    -6.847000000
C     0.902000000    -1.283000000    -5.940000000
C     1.265000000    -2.566000000    -5.534000000
H     1.009000000    -3.471000000    -6.079000000
C     2.087000000    -2.736000000    -4.394000000
O     2.401000000    -4.035000000    -3.983000000
C     3.492000000    -4.345000000    -3.314000000
C     4.763000000    -4.140000000    -3.824000000
H     4.713000000    -3.845000000    -4.869000000
C     5.901000000    -4.430000000    -3.029000000
H     6.904000000    -4.221000000    -3.394000000
C     5.696000000    -5.082000000    -1.790000000
H     6.556000000    -5.375000000    -1.195000000
C     4.354000000    -5.332000000    -1.334000000
C     3.253000000    -4.994000000    -2.121000000
H     2.237000000    -5.180000000    -1.782000000
C    -1.604000000    -2.118000000     0.685000000
H    -2.617000000    -2.375000000     0.982000000
C    -1.169000000    -0.812000000     0.682000000
H    -1.887000000    -0.049000000     0.969000000
C     0.153000000    -0.523000000     0.294000000
C     0.687000000     0.870000000     0.476000000
H     1.765000000     0.902000000     0.642000000
H     0.532000000     1.392000000    -0.471000000
H     0.070000000     1.302000000     1.266000000
C     1.041000000    -1.563000000    -0.053000000
H     2.044000000    -1.293000000    -0.373000000
C     0.607000000    -2.923000000     0.036000000
H     1.153000000    -3.814000000    -0.262000000
C    -0.747000000    -3.166000000     0.319000000
C    -1.293000000    -4.589000000     0.270000000
O    -0.854000000    -5.357000000    -0.585000000
O    -2.228000000    -4.955000000     0.950000000
O    -1.752000000    -1.703000000    -2.876000000
H    -1.101000000    -1.151000000    -3.309000000
H    -1.318000000    -2.551000000    -2.776000000
O    -7.454000000    -4.624000000     1.480000000
H    -7.387000000    -5.226000000     2.221000000
H    -6.647000000    -4.763000000     0.984000000
O    -4.332000000   -10.795000000    -0.397000000
H    -3.972000000   -11.330000000     0.310000000
H    -4.124000000    -9.895000000    -0.147000000
O    -4.590000000    -6.128000000     4.390000000
H    -4.049000000    -5.437000000     4.772000000
H    -5.489000000    -5.820000000     4.506000000
O    -0.407000000    -7.221000000    -4.185000000
H    -0.859000000    -7.410000000    -3.362000000
H     0.449000000    -7.640000000    -4.089000000
O    -1.479000000    -9.437000000     3.790000000
H    -1.332000000    -8.877000000     4.552000000
H    -1.757000000    -8.834000000     3.100000000
O     2.057000000    -7.654000000    -0.620000000
H     1.291000000    -7.152000000    -0.341000000
H     1.751000000    -8.158000000    -1.374000000
O    -0.213000000   -10.216000000    -1.520000000
H    -0.476000000    -9.301000000    -1.614000000
H     0.740000000   -10.202000000    -1.605000000
O    -0.972000000    -4.421000000    -3.195000000
H    -1.114000000    -4.863000000    -2.358000000
H    -0.513000000    -5.066000000    -3.732000000
O    -4.781000000    -7.571000000    -3.215000000
H    -5.630000000    -7.142000000    -3.320000000
H    -4.273000000    -7.285000000    -3.975000000
O     4.109000000    -9.250000000    -0.004000000
H     4.840000000    -8.848000000    -0.472000000
H     3.358000000    -8.691000000    -0.204000000
O    -3.667000000    -6.749000000    -5.637000000
H    -3.975000000    -6.682000000    -6.541000000
H    -2.732000000    -6.552000000    -5.687000000
O    -6.266000000    -3.132000000    -3.284000000
H    -5.696000000    -2.901000000    -4.017000000
H    -5.759000000    -2.904000000    -2.505000000
O    -0.941000000    -7.626000000    -1.553000000
H    -1.831000000    -7.780000000    -1.235000000
H    -0.684000000    -6.796000000    -1.153000000
O    -4.035000000    -2.192000000    -1.125000000
H    -3.360000000    -1.938000000    -1.753000000
H    -3.550000000    -2.422000000    -0.332000000
O    -2.652000000    -7.113000000     2.310000000
H    -3.125000000    -6.749000000     3.059000000
H    -2.336000000    -6.347000000     1.831000000
O    -3.471000000    -8.259000000    -0.427000000
H    -3.085000000    -7.775000000     0.302000000
H    -4.095000000    -7.647000000    -0.818000000
O    -5.028000000    -5.066000000     0.487000000
H    -5.178000000    -4.266000000    -0.018000000
H    -4.192000000    -4.916000000     0.930000000
O    -3.686000000    -3.437000000    -4.753000000
H    -2.984000000    -3.109000000    -4.191000000
H    -3.518000000    -4.377000000    -4.822000000
