218
-1454.10370
C    -3.403000000     1.183000000     2.933000000
H    -3.235000000     1.920000000     2.152000000
C    -2.401000000     0.993000000     3.908000000
C    -2.520000000    -0.089000000     4.803000000
H    -1.735000000    -0.520000000     5.420000000
C    -1.096000000     1.692000000     3.579000000
O    -1.261000000     3.034000000     3.220000000
H    -0.596000000     1.060000000     2.830000000
O    -0.231000000     1.790000000     4.709000000
C     1.069000000     1.493000000     4.460000000
C     1.427000000     0.159000000     4.472000000
H     0.662000000    -0.543000000     4.794000000
C     2.684000000    -0.308000000     4.030000000
O     2.975000000    -1.642000000     3.956000000
C     3.636000000     0.632000000     3.526000000
C     4.916000000     0.093000000     2.904000000
H     5.728000000     0.802000000     3.074000000
C     4.759000000    -0.262000000     1.435000000
C     5.080000000     0.680000000     0.487000000
H     5.338000000     1.672000000     0.850000000
H     5.242000000    -0.796000000     3.449000000
C     3.323000000     1.954000000     3.566000000
H     3.865000000     2.717000000     3.014000000
C     2.024000000     2.403000000     4.022000000
C     1.627000000     3.840000000     3.704000000
H     2.505000000     4.487000000     3.758000000
H     0.961000000     4.178000000     4.501000000
C     0.833000000     4.058000000     2.443000000
C     1.490000000     4.555000000     1.300000000
H     2.571000000     4.659000000     1.238000000
C    -0.477000000     3.642000000     2.256000000
C    -1.199000000     3.922000000     1.073000000
H    -2.259000000     3.710000000     0.959000000
C    -0.532000000     4.415000000    -0.013000000
O    -1.234000000     4.554000000    -1.199000000
C    -1.016000000     3.541000000    -2.205000000
C    -2.238000000     3.300000000    -2.948000000
C    -2.260000000     2.753000000    -4.215000000
H    -1.346000000     2.495000000    -4.744000000
C    -3.444000000     3.416000000    -2.301000000
H    -3.496000000     3.767000000    -1.273000000
O     0.038000000     4.043000000    -3.032000000
H    -0.700000000     2.602000000    -1.726000000
C     0.792000000     4.785000000     0.080000000
C     1.615000000     5.252000000    -1.128000000
H     2.380000000     5.987000000    -0.868000000
H     0.978000000     5.884000000    -1.750000000
C     2.161000000     4.068000000    -1.895000000
C     3.386000000     3.457000000    -1.715000000
H     4.042000000     3.864000000    -0.949000000
C     1.277000000     3.505000000    -2.800000000
C     1.585000000     2.335000000    -3.450000000
H     0.814000000     1.916000000    -4.091000000
C     2.790000000     1.755000000    -3.316000000
O     3.014000000     0.525000000    -3.904000000
C     2.660000000    -0.677000000    -3.152000000
C     1.981000000    -1.658000000    -4.045000000
C     1.244000000    -1.292000000    -5.219000000
H     1.222000000    -0.246000000    -5.514000000
C     1.873000000    -2.994000000    -3.702000000
H     2.533000000    -3.392000000    -2.936000000
O     3.887000000    -1.159000000    -2.610000000
H     2.007000000    -0.446000000    -2.297000000
C     3.642000000     2.207000000    -2.317000000
C     4.941000000     1.514000000    -1.944000000
H     5.747000000     2.222000000    -1.739000000
H     5.225000000     0.979000000    -2.853000000
C     4.771000000     0.439000000    -0.888000000
C     4.310000000    -0.802000000    -1.313000000
C     4.177000000    -1.786000000    -0.368000000
H     3.955000000    -2.767000000    -0.780000000
C     4.221000000    -1.528000000     1.014000000
O     3.862000000    -2.536000000     1.896000000
C     2.647000000    -2.204000000     2.699000000
H     2.070000000    -1.498000000     2.084000000
C     1.796000000    -3.453000000     2.801000000
C     0.994000000    -3.745000000     3.882000000
H     1.184000000    -3.256000000     4.834000000
C     1.676000000    -4.275000000     1.667000000
H     2.288000000    -4.149000000     0.778000000
C     0.767000000    -5.335000000     1.615000000
O     0.568000000    -6.111000000     0.527000000
C     0.034000000    -5.634000000     2.736000000
H    -0.604000000    -6.513000000     2.694000000
C     0.196000000    -4.857000000     3.882000000
O    -0.457000000    -5.222000000     5.037000000
C    -1.224000000    -4.442000000     5.838000000
C    -2.057000000    -3.475000000     5.355000000
H    -1.987000000    -3.198000000     4.307000000
C    -1.100000000    -4.722000000     7.140000000
H    -0.400000000    -5.497000000     7.444000000
C    -2.039000000    -4.053000000     8.014000000
H    -2.087000000    -4.376000000     9.051000000
C    -2.895000000    -3.018000000     7.542000000
H    -3.620000000    -2.520000000     8.181000000
C    -2.893000000    -2.720000000     6.199000000
O    -3.891000000    -1.860000000     5.742000000
C    -3.726000000    -0.874000000     4.814000000
C    -4.764000000    -0.536000000     3.903000000
H    -5.688000000    -1.094000000     4.034000000
C    -4.587000000     0.413000000     2.907000000
O    -5.528000000     0.706000000     1.908000000
C    -5.792000000     1.895000000     1.249000000
C    -5.695000000     1.963000000    -0.153000000
H    -5.510000000     0.998000000    -0.617000000
C    -6.317000000     2.953000000     1.957000000
H    -6.543000000     2.799000000     3.010000000
C    -6.690000000     4.092000000     1.255000000
H    -7.216000000     4.922000000     1.719000000
C    -6.454000000     4.218000000    -0.133000000
H    -6.720000000     5.149000000    -0.627000000
C    -5.951000000     3.144000000    -0.829000000
O    -5.780000000     3.195000000    -2.152000000
C    -4.638000000     3.130000000    -2.883000000
C    -4.690000000     2.674000000    -4.188000000
H    -5.640000000     2.478000000    -4.679000000
C    -3.501000000     2.491000000    -4.886000000
O    -3.511000000     1.946000000    -6.155000000
C    -2.472000000     1.385000000    -6.792000000
C    -2.115000000     0.024000000    -6.467000000
H    -2.708000000    -0.575000000    -5.780000000
C    -1.630000000     2.153000000    -7.570000000
H    -1.872000000     3.207000000    -7.682000000
C    -0.575000000     1.480000000    -8.283000000
H     0.067000000     2.023000000    -8.973000000
C    -0.294000000     0.159000000    -8.012000000
H     0.542000000    -0.307000000    -8.526000000
C    -1.006000000    -0.540000000    -7.060000000
O    -0.583000000    -1.737000000    -6.838000000
C     0.345000000    -2.129000000    -5.863000000
C     0.191000000    -3.455000000    -5.410000000
H    -0.530000000    -4.097000000    -5.909000000
C     0.973000000    -3.836000000    -4.333000000
O     0.843000000    -5.099000000    -3.951000000
C     1.537000000    -5.556000000    -2.842000000
C     2.935000000    -5.755000000    -2.780000000
H     3.567000000    -5.542000000    -3.638000000
C     3.489000000    -6.243000000    -1.627000000
H     4.559000000    -6.398000000    -1.513000000
C     2.684000000    -6.586000000    -0.520000000
H     3.119000000    -6.975000000     0.397000000
C     1.334000000    -6.216000000    -0.558000000
C     0.760000000    -5.793000000    -1.734000000
H    -0.312000000    -5.618000000    -1.792000000
C    -1.814000000    -1.204000000    -2.473000000
H    -2.421000000    -1.027000000    -3.357000000
C    -1.203000000    -0.231000000    -1.719000000
H    -1.249000000     0.822000000    -1.987000000
C    -0.590000000    -0.576000000    -0.547000000
C     0.055000000     0.489000000     0.280000000
H     0.422000000     0.060000000     1.215000000
H     0.901000000     0.903000000    -0.273000000
H    -0.666000000     1.287000000     0.464000000
C    -0.713000000    -1.894000000    -0.068000000
H    -0.315000000    -2.112000000     0.920000000
C    -1.232000000    -2.942000000    -0.863000000
H    -1.242000000    -3.986000000    -0.559000000
C    -1.742000000    -2.561000000    -2.118000000
C    -2.600000000    -3.548000000    -2.933000000
O    -2.540000000    -4.740000000    -2.646000000
O    -3.370000000    -3.090000000    -3.749000000
O    -3.397000000    -5.717000000    -0.176000000
H    -2.803000000    -6.468000000    -0.180000000
H    -3.068000000    -5.149000000    -0.873000000
O    -5.148000000    -2.386000000    -7.865000000
H    -5.607000000    -1.914000000    -8.561000000
H    -5.288000000    -3.310000000    -8.070000000
O    -5.301000000    -6.239000000    -3.496000000
H    -5.642000000    -5.658000000    -4.176000000
H    -4.454000000    -5.860000000    -3.261000000
O    -8.406000000    -2.231000000    -2.779000000
H    -8.055000000    -2.238000000    -3.670000000
H    -7.725000000    -2.644000000    -2.249000000
O    -8.542000000    -5.603000000    -2.003000000
H    -7.646000000    -5.438000000    -2.298000000
H    -9.090000000    -5.350000000    -2.746000000
O    -5.896000000    -0.508000000    -3.153000000
H    -5.766000000    -1.272000000    -2.592000000
H    -5.959000000    -0.868000000    -4.038000000
O    -5.400000000    -2.356000000    -5.191000000
H    -4.546000000    -2.488000000    -4.780000000
H    -5.220000000    -2.383000000    -6.131000000
O    -7.518000000    -7.556000000    -4.623000000
H    -7.088000000    -8.412000000    -4.615000000
H    -6.805000000    -6.929000000    -4.507000000
O    -2.751000000    -2.989000000    -9.263000000
H    -3.223000000    -2.599000000    -8.528000000
H    -3.344000000    -3.661000000    -9.599000000
O    -6.673000000    -4.794000000    -5.571000000
H    -6.467000000    -3.901000000    -5.294000000
H    -7.092000000    -4.690000000    -6.425000000
O    -8.091000000    -1.770000000    -5.693000000
H    -8.300000000    -2.115000000    -6.561000000
H    -7.213000000    -2.102000000    -5.508000000
O    -2.711000000    -6.331000000    -7.454000000
H    -2.408000000    -6.136000000    -6.567000000
H    -2.115000000    -7.011000000    -7.767000000
O    -2.100000000    -6.475000000    -4.551000000
H    -1.300000000    -6.900000000    -4.240000000
H    -2.279000000    -5.796000000    -3.900000000
O    -5.798000000    -3.107000000    -2.365000000
H    -5.707000000    -3.255000000    -1.424000000
H    -4.899000000    -3.083000000    -2.692000000
O    -2.855000000    -3.671000000     1.544000000
H    -2.222000000    -3.081000000     1.135000000
H    -3.274000000    -4.120000000     0.810000000
O    -6.124000000    -6.283000000     0.619000000
H    -5.467000000    -5.626000000     0.389000000
H    -6.751000000    -5.813000000     1.168000000
O    -5.652000000    -3.051000000     0.400000000
H    -5.175000000    -2.427000000     0.947000000
H    -6.436000000    -3.264000000     0.907000000
O    -5.168000000    -7.972000000    -1.398000000
H    -5.480000000    -7.490000000    -2.164000000
H    -5.394000000    -7.413000000    -0.655000000
O    -2.976000000    -8.647000000    -2.967000000
H    -2.736000000    -7.995000000    -3.626000000
H    -3.762000000    -8.291000000    -2.554000000
