218
-1474.90781
C    -3.768000000     2.577000000     2.761000000
H    -3.507000000     3.607000000     2.533000000
C    -2.730000000     1.778000000     3.213000000
C    -2.950000000     0.456000000     3.502000000
H    -2.167000000    -0.235000000     3.802000000
C    -1.311000000     2.341000000     3.318000000
O    -1.213000000     3.796000000     3.148000000
H    -0.763000000     1.850000000     2.500000000
O    -0.695000000     2.017000000     4.486000000
C     0.607000000     1.519000000     4.442000000
C     0.804000000     0.170000000     4.596000000
H    -0.020000000    -0.513000000     4.785000000
C     2.004000000    -0.405000000     4.280000000
O     2.122000000    -1.736000000     4.160000000
C     3.145000000     0.420000000     3.910000000
C     4.448000000    -0.210000000     3.459000000
H     5.324000000     0.438000000     3.533000000
C     4.401000000    -0.499000000     1.956000000
C     4.860000000     0.402000000     0.975000000
H     5.260000000     1.371000000     1.262000000
H     4.647000000    -1.126000000     4.018000000
C     2.906000000     1.788000000     3.772000000
H     3.665000000     2.428000000     3.329000000
C     1.635000000     2.288000000     4.012000000
C     1.481000000     3.786000000     3.869000000
H     2.435000000     4.234000000     4.156000000
H     0.757000000     4.212000000     4.567000000
C     1.029000000     4.156000000     2.513000000
C     1.881000000     4.365000000     1.476000000
H     2.950000000     4.282000000     1.650000000
C    -0.307000000     4.284000000     2.242000000
C    -0.842000000     4.486000000     0.992000000
H    -1.906000000     4.497000000     0.770000000
C     0.061000000     4.675000000    -0.051000000
O    -0.426000000     4.732000000    -1.357000000
C    -0.214000000     3.549000000    -2.122000000
C    -1.547000000     3.111000000    -2.818000000
C    -1.495000000     2.667000000    -4.122000000
H    -0.561000000     2.387000000    -4.604000000
C    -2.786000000     3.246000000    -2.241000000
H    -2.849000000     3.630000000    -1.226000000
O     0.842000000     3.906000000    -3.077000000
H     0.110000000     2.684000000    -1.524000000
C     1.411000000     4.738000000     0.185000000
C     2.495000000     5.039000000    -0.909000000
H     3.338000000     5.563000000    -0.454000000
H     2.019000000     5.774000000    -1.563000000
C     2.792000000     3.799000000    -1.697000000
C     3.908000000     2.947000000    -1.305000000
H     4.614000000     3.271000000    -0.545000000
C     2.010000000     3.293000000    -2.748000000
C     2.343000000     2.087000000    -3.399000000
H     1.750000000     1.704000000    -4.225000000
C     3.424000000     1.364000000    -2.984000000
O     3.455000000     0.073000000    -3.511000000
C     3.132000000    -1.014000000    -2.622000000
C     2.393000000    -2.096000000    -3.396000000
C     1.486000000    -1.695000000    -4.392000000
H     1.377000000    -0.639000000    -4.624000000
C     2.507000000    -3.459000000    -3.031000000
H     3.265000000    -3.716000000    -2.295000000
O     4.266000000    -1.518000000    -2.030000000
H     2.457000000    -0.648000000    -1.835000000
C     4.241000000     1.744000000    -1.879000000
C     5.448000000     0.982000000    -1.396000000
H     6.158000000     1.721000000    -1.021000000
H     5.834000000     0.389000000    -2.228000000
C     4.947000000     0.009000000    -0.328000000
C     4.429000000    -1.210000000    -0.667000000
C     3.854000000    -2.118000000     0.211000000
H     3.578000000    -3.112000000    -0.131000000
C     3.837000000    -1.704000000     1.533000000
O     3.339000000    -2.595000000     2.434000000
C     1.944000000    -2.397000000     2.866000000
H     1.417000000    -1.689000000     2.210000000
C     1.093000000    -3.669000000     2.884000000
C     0.026000000    -3.815000000     3.811000000
H    -0.046000000    -3.179000000     4.690000000
C     1.192000000    -4.602000000     1.876000000
H     1.963000000    -4.471000000     1.121000000
C     0.227000000    -5.625000000     1.695000000
O     0.414000000    -6.652000000     0.844000000
C    -0.792000000    -5.694000000     2.619000000
H    -1.477000000    -6.537000000     2.663000000
C    -0.809000000    -4.853000000     3.710000000
O    -1.839000000    -5.038000000     4.631000000
C    -2.843000000    -4.162000000     4.993000000
C    -3.131000000    -3.061000000     4.162000000
H    -2.588000000    -2.924000000     3.230000000
C    -3.591000000    -4.347000000     6.165000000
H    -3.390000000    -5.127000000     6.894000000
C    -4.639000000    -3.455000000     6.510000000
H    -5.226000000    -3.740000000     7.380000000
C    -4.884000000    -2.337000000     5.615000000
H    -5.724000000    -1.677000000     5.819000000
C    -4.166000000    -2.242000000     4.444000000
O    -4.533000000    -1.315000000     3.487000000
C    -4.280000000     0.042000000     3.431000000
C    -5.387000000     0.831000000     3.080000000
H    -6.388000000     0.413000000     3.012000000
C    -5.076000000     2.112000000     2.752000000
O    -6.004000000     3.034000000     2.356000000
C    -6.077000000     3.654000000     1.078000000
C    -5.538000000     3.004000000     0.007000000
H    -5.159000000     1.986000000     0.033000000
C    -6.653000000     4.970000000     0.929000000
H    -7.164000000     5.485000000     1.738000000
C    -6.691000000     5.499000000    -0.411000000
H    -7.131000000     6.464000000    -0.648000000
C    -6.083000000     4.873000000    -1.482000000
H    -6.126000000     5.219000000    -2.512000000
C    -5.609000000     3.600000000    -1.253000000
O    -5.233000000     2.855000000    -2.357000000
C    -3.958000000     2.975000000    -2.943000000
C    -3.843000000     2.497000000    -4.235000000
H    -4.767000000     2.195000000    -4.722000000
C    -2.636000000     2.445000000    -4.913000000
O    -2.543000000     1.919000000    -6.161000000
C    -1.544000000     1.130000000    -6.565000000
C    -1.267000000    -0.124000000    -6.027000000
H    -1.789000000    -0.495000000    -5.148000000
C    -0.708000000     1.646000000    -7.562000000
H    -0.929000000     2.632000000    -7.961000000
C     0.366000000     0.854000000    -8.034000000
H     0.909000000     1.309000000    -8.859000000
C     0.707000000    -0.379000000    -7.538000000
H     1.570000000    -0.965000000    -7.842000000
C    -0.197000000    -0.904000000    -6.570000000
O     0.024000000    -2.194000000    -6.138000000
C     0.756000000    -2.611000000    -5.093000000
C     0.939000000    -3.960000000    -4.753000000
H     0.411000000    -4.698000000    -5.351000000
C     1.765000000    -4.393000000    -3.716000000
O     1.988000000    -5.754000000    -3.506000000
C     2.180000000    -6.297000000    -2.301000000
C     3.293000000    -7.122000000    -2.100000000
H     4.095000000    -7.104000000    -2.834000000
C     3.447000000    -7.805000000    -0.890000000
H     4.407000000    -8.259000000    -0.659000000
C     2.457000000    -7.671000000     0.112000000
H     2.566000000    -8.255000000     1.022000000
C     1.430000000    -6.729000000    -0.062000000
C     1.225000000    -6.078000000    -1.289000000
H     0.282000000    -5.552000000    -1.410000000
C    -2.446000000     0.361000000    -0.847000000
H    -3.434000000     0.810000000    -0.791000000
C    -1.270000000     0.825000000    -0.230000000
H    -1.343000000     1.758000000     0.322000000
C    -0.129000000     0.108000000    -0.272000000
C     1.148000000     0.653000000     0.390000000
H     1.037000000     1.423000000     1.157000000
H     1.588000000    -0.246000000     0.826000000
H     1.775000000     1.109000000    -0.379000000
C    -0.017000000    -1.016000000    -1.079000000
H     0.872000000    -1.638000000    -1.003000000
C    -1.131000000    -1.446000000    -1.805000000
H    -1.121000000    -2.402000000    -2.323000000
C    -2.375000000    -0.804000000    -1.658000000
C    -3.607000000    -1.379000000    -2.355000000
O    -3.486000000    -2.363000000    -3.090000000
O    -4.688000000    -0.966000000    -2.000000000
O    -2.259000000    -3.243000000     0.461000000
H    -2.070000000    -3.820000000    -0.279000000
H    -2.135000000    -2.360000000     0.114000000
O    -1.936000000    -5.287000000    -6.549000000
H    -2.091000000    -5.708000000    -5.704000000
H    -2.472000000    -4.494000000    -6.524000000
O    -6.340000000    -3.401000000    -2.786000000
H    -5.518000000    -2.967000000    -2.558000000
H    -6.744000000    -2.824000000    -3.434000000
O    -7.699000000    -5.594000000    -4.153000000
H    -7.056000000    -5.254000000    -3.531000000
H    -7.891000000    -4.853000000    -4.728000000
O    -5.346000000    -1.157000000    -5.568000000
H    -6.185000000    -0.743000000    -5.771000000
H    -5.379000000    -1.317000000    -4.625000000
O    -3.745000000    -3.274000000    -5.519000000
H    -3.607000000    -2.898000000    -4.650000000
H    -4.298000000    -2.636000000    -5.971000000
O    -4.588000000     1.175000000    -8.166000000
H    -5.247000000     0.977000000    -7.501000000
H    -4.307000000     2.068000000    -7.966000000
O    -3.112000000    -1.291000000    -8.121000000
H    -3.103000000    -0.677000000    -7.387000000
H    -4.036000000    -1.363000000    -8.362000000
O    -8.834000000    -2.600000000    -0.378000000
H    -8.430000000    -3.425000000    -0.647000000
H    -9.169000000    -2.221000000    -1.190000000
O    -7.330000000    -0.865000000     0.737000000
H    -8.008000000    -1.537000000     0.664000000
H    -6.508000000    -1.355000000     0.759000000
O    -8.102000000    -1.297000000    -4.169000000
H    -9.011000000    -1.592000000    -4.212000000
H    -8.062000000    -0.759000000    -3.378000000
O    -5.817000000    -4.284000000     2.113000000
H    -5.505000000    -3.590000000     1.533000000
H    -5.500000000    -4.032000000     2.980000000
O    -2.365000000    -4.631000000    -2.074000000
H    -2.799000000    -3.867000000    -2.453000000
H    -2.246000000    -5.230000000    -2.811000000
O    -7.070000000     0.204000000    -1.713000000
H    -7.320000000    -0.088000000    -0.837000000
H    -6.190000000    -0.152000000    -1.842000000
O    -7.403000000    -4.783000000    -0.866000000
H    -7.066000000    -4.465000000    -1.704000000
H    -7.111000000    -5.693000000    -0.820000000
O    -4.943000000    -2.335000000     0.460000000
H    -4.966000000    -2.043000000    -0.452000000
H    -4.037000000    -2.612000000     0.599000000
O    -9.318000000     2.050000000    -2.171000000
H    -9.811000000     1.459000000    -1.602000000
H    -8.404000000     1.788000000    -2.054000000
O    -4.901000000    -6.242000000    -5.235000000
H    -5.109000000    -6.272000000    -6.169000000
H    -4.970000000    -5.315000000    -5.004000000
O    -7.870000000    -3.308000000    -6.242000000
H    -8.807000000    -3.478000000    -6.340000000
H    -7.826000000    -2.457000000    -5.806000000
