218
-1484.82629
C    -4.260000000     1.749000000     2.423000000
H    -3.950000000     2.697000000     1.988000000
C    -3.323000000     0.972000000     2.973000000
C    -3.711000000    -0.321000000     3.458000000
H    -2.956000000    -0.903000000     3.980000000
C    -1.927000000     1.579000000     3.250000000
O    -2.016000000     2.986000000     3.396000000
H    -1.420000000     1.254000000     2.330000000
O    -1.281000000     0.995000000     4.373000000
C     0.043000000     0.661000000     4.239000000
C     0.359000000    -0.703000000     4.167000000
H    -0.465000000    -1.412000000     4.159000000
C     1.659000000    -1.157000000     4.157000000
O     1.746000000    -2.560000000     3.938000000
C     2.677000000    -0.201000000     3.973000000
C     4.118000000    -0.622000000     3.782000000
H     4.769000000     0.109000000     4.265000000
C     4.454000000    -0.752000000     2.305000000
C     4.914000000     0.379000000     1.574000000
H     5.072000000     1.305000000     2.121000000
H     4.437000000    -1.568000000     4.224000000
C     2.355000000     1.138000000     4.149000000
H     3.201000000     1.820000000     4.127000000
C     1.040000000     1.605000000     4.274000000
C     0.792000000     3.059000000     4.432000000
H     1.683000000     3.514000000     4.870000000
H    -0.010000000     3.106000000     5.171000000
C     0.247000000     3.818000000     3.149000000
C     1.222000000     4.452000000     2.402000000
H     2.228000000     4.551000000     2.803000000
C    -1.048000000     3.721000000     2.700000000
C    -1.267000000     4.162000000     1.388000000
H    -2.277000000     4.059000000     0.998000000
C    -0.302000000     4.731000000     0.634000000
O    -0.712000000     5.061000000    -0.651000000
C    -0.467000000     4.061000000    -1.606000000
C    -1.657000000     4.030000000    -2.584000000
C    -1.540000000     3.536000000    -3.847000000
H    -0.559000000     3.203000000    -4.175000000
C    -2.974000000     4.288000000    -2.064000000
H    -3.131000000     4.656000000    -1.054000000
O     0.731000000     4.309000000    -2.217000000
H    -0.548000000     3.050000000    -1.180000000
C     0.991000000     4.894000000     1.136000000
C     2.102000000     5.364000000     0.195000000
H     2.867000000     5.800000000     0.842000000
H     1.703000000     6.168000000    -0.427000000
C     2.623000000     4.124000000    -0.615000000
C     3.693000000     3.305000000    -0.216000000
H     4.251000000     3.576000000     0.677000000
C     1.921000000     3.734000000    -1.786000000
C     2.344000000     2.631000000    -2.510000000
H     1.757000000     2.326000000    -3.373000000
C     3.454000000     1.952000000    -2.214000000
O     3.744000000     0.868000000    -2.981000000
C     3.397000000    -0.465000000    -2.399000000
C     2.740000000    -1.412000000    -3.345000000
C     1.543000000    -1.074000000    -3.977000000
H     1.301000000    -0.015000000    -4.015000000
C     3.123000000    -2.729000000    -3.391000000
H     3.971000000    -3.157000000    -2.864000000
O     4.587000000    -1.026000000    -1.759000000
H     2.628000000    -0.337000000    -1.622000000
C     4.205000000     2.285000000    -1.075000000
C     5.462000000     1.556000000    -0.594000000
H     6.079000000     2.296000000    -0.080000000
H     6.146000000     1.155000000    -1.345000000
C     5.059000000     0.336000000     0.201000000
C     4.689000000    -0.890000000    -0.385000000
C     4.307000000    -2.005000000     0.301000000
H     3.971000000    -2.896000000    -0.222000000
C     4.147000000    -1.956000000     1.615000000
O     3.417000000    -2.915000000     2.283000000
C     1.949000000    -2.838000000     2.534000000
H     1.423000000    -2.022000000     2.016000000
C     1.169000000    -4.051000000     2.055000000
C    -0.227000000    -4.091000000     2.269000000
H    -0.745000000    -3.370000000     2.897000000
C     1.769000000    -5.162000000     1.418000000
H     2.853000000    -5.252000000     1.411000000
C     0.927000000    -6.040000000     0.720000000
O     1.516000000    -7.052000000    -0.052000000
C    -0.431000000    -6.067000000     0.894000000
H    -0.921000000    -6.805000000     0.263000000
C    -0.981000000    -5.080000000     1.648000000
O    -2.299000000    -5.276000000     1.943000000
C    -2.943000000    -4.672000000     3.037000000
C    -3.953000000    -3.730000000     2.737000000
H    -4.157000000    -3.480000000     1.699000000
C    -2.564000000    -5.004000000     4.290000000
H    -1.763000000    -5.730000000     4.397000000
C    -3.104000000    -4.302000000     5.374000000
H    -2.799000000    -4.526000000     6.393000000
C    -4.075000000    -3.354000000     5.144000000
H    -4.550000000    -2.742000000     5.907000000
C    -4.478000000    -3.040000000     3.819000000
O    -5.399000000    -2.040000000     3.719000000
C    -5.004000000    -0.806000000     3.327000000
C    -5.988000000     0.008000000     2.827000000
H    -7.011000000    -0.335000000     2.693000000
C    -5.564000000     1.260000000     2.275000000
O    -6.503000000     1.811000000     1.430000000
C    -6.325000000     3.054000000     0.837000000
C    -5.963000000     3.117000000    -0.539000000
H    -5.941000000     2.208000000    -1.135000000
C    -6.252000000     4.183000000     1.623000000
H    -6.457000000     4.080000000     2.686000000
C    -6.111000000     5.446000000     1.088000000
H    -6.258000000     6.300000000     1.743000000
C    -5.792000000     5.523000000    -0.245000000
H    -5.532000000     6.487000000    -0.676000000
C    -5.702000000     4.412000000    -1.113000000
O    -5.347000000     4.471000000    -2.468000000
C    -4.137000000     4.145000000    -2.888000000
C    -3.911000000     3.584000000    -4.143000000
H    -4.770000000     3.330000000    -4.758000000
C    -2.656000000     3.327000000    -4.680000000
O    -2.408000000     2.753000000    -5.940000000
C    -1.376000000     1.855000000    -6.193000000
C    -1.418000000     0.576000000    -5.645000000
H    -2.063000000     0.416000000    -4.785000000
C    -0.433000000     2.165000000    -7.171000000
H    -0.547000000     3.133000000    -7.653000000
C     0.615000000     1.273000000    -7.442000000
H     1.346000000     1.493000000    -8.216000000
C     0.575000000     0.009000000    -6.863000000
H     1.292000000    -0.721000000    -7.228000000
C    -0.438000000    -0.341000000    -5.964000000
O    -0.412000000    -1.586000000    -5.303000000
C     0.729000000    -1.960000000    -4.656000000
C     1.140000000    -3.308000000    -4.722000000
H     0.561000000    -4.109000000    -5.174000000
C     2.309000000    -3.687000000    -4.045000000
O     2.757000000    -4.928000000    -4.233000000
C     3.066000000    -5.755000000    -3.164000000
C     4.194000000    -6.531000000    -3.235000000
H     4.832000000    -6.397000000    -4.105000000
C     4.419000000    -7.459000000    -2.175000000
H     5.206000000    -8.209000000    -2.163000000
C     3.484000000    -7.707000000    -1.182000000
H     3.640000000    -8.517000000    -0.474000000
C     2.370000000    -6.864000000    -1.109000000
C     2.163000000    -5.931000000    -2.178000000
H     1.218000000    -5.396000000    -2.234000000
C    -2.443000000    -0.357000000    -0.605000000
H    -3.459000000     0.029000000    -0.594000000
C    -1.438000000     0.477000000    -0.204000000
H    -1.626000000     1.529000000    -0.004000000
C    -0.117000000     0.003000000    -0.070000000
C     0.888000000     0.901000000     0.579000000
H     1.906000000     0.553000000     0.391000000
H     0.958000000     1.911000000     0.170000000
H     0.832000000     1.063000000     1.657000000
C     0.162000000    -1.331000000    -0.388000000
H     1.185000000    -1.657000000    -0.219000000
C    -0.849000000    -2.175000000    -0.951000000
H    -0.617000000    -3.162000000    -1.343000000
C    -2.206000000    -1.719000000    -0.971000000
C    -3.357000000    -2.654000000    -1.348000000
O    -3.105000000    -3.689000000    -2.003000000
O    -4.502000000    -2.230000000    -1.296000000
O    -8.543000000    -5.753000000     0.580000000
H    -7.746000000    -6.111000000     0.190000000
H    -8.266000000    -4.927000000     0.977000000
O    -4.643000000    -0.697000000    -4.851000000
H    -4.233000000    -1.554000000    -4.971000000
H    -4.667000000    -0.318000000    -5.729000000
O    -2.222000000    -4.176000000    -6.980000000
H    -2.680000000    -3.721000000    -6.273000000
H    -2.830000000    -4.862000000    -7.257000000
O    -5.319000000    -5.490000000    -4.844000000
H    -6.104000000    -5.995000000    -5.060000000
H    -5.479000000    -5.168000000    -3.957000000
O    -1.330000000    -7.485000000    -3.264000000
H    -0.896000000    -7.759000000    -4.073000000
H    -1.495000000    -6.550000000    -3.386000000
O    -5.800000000    -4.466000000    -2.256000000
H    -6.063000000    -4.734000000    -1.375000000
H    -5.679000000    -3.519000000    -2.191000000
O    -5.752000000    -7.539000000    -2.115000000
H    -5.460000000    -6.637000000    -2.246000000
H    -4.990000000    -8.072000000    -2.340000000
O    -7.738000000    -3.708000000     2.191000000
H    -7.580000000    -3.149000000     1.430000000
H    -7.865000000    -3.096000000     2.916000000
O    -1.484000000    -4.929000000    -3.791000000
H    -1.904000000    -4.347000000    -3.158000000
H    -1.592000000    -4.485000000    -4.633000000
O    -5.374000000    -0.008000000    -2.558000000
H    -4.978000000    -0.181000000    -3.412000000
H    -5.068000000    -0.725000000    -2.002000000
O    -7.722000000    -0.742000000    -5.272000000
H    -8.233000000    -1.328000000    -4.713000000
H    -6.928000000    -0.562000000    -4.768000000
O    -3.240000000    -7.965000000     0.845000000
H    -3.145000000    -7.449000000     0.044000000
H    -2.966000000    -7.372000000     1.545000000
O    -8.359000000    -2.592000000    -2.355000000
H    -8.885000000    -3.216000000    -1.856000000
H    -8.238000000    -3.009000000    -3.208000000
O    -9.413000000    -0.255000000    -1.542000000
H    -9.052000000    -0.970000000    -2.066000000
H    -8.844000000     0.491000000    -1.733000000
O    -7.606000000     1.478000000    -2.926000000
H    -6.839000000     0.979000000    -2.646000000
H    -7.683000000     1.293000000    -3.862000000
O    -3.137000000    -6.331000000    -1.272000000
H    -3.201000000    -5.384000000    -1.393000000
H    -2.613000000    -6.632000000    -2.014000000
O    -6.876000000    -2.570000000    -0.116000000
H    -7.291000000    -2.295000000    -0.934000000
H    -5.972000000    -2.265000000    -0.193000000
O    -3.485000000    -3.244000000    -4.588000000
H    -3.602000000    -3.145000000    -3.643000000
H    -4.081000000    -3.953000000    -4.830000000
O    -5.836000000    -5.939000000     0.543000000
H    -4.991000000    -6.343000000     0.347000000
H    -5.776000000    -5.692000000     1.466000000
