218
-1474.30302
C    -4.326000000     2.931000000     1.939000000
H    -3.951000000     3.792000000     1.392000000
C    -3.452000000     2.104000000     2.682000000
C    -3.930000000     0.978000000     3.314000000
H    -3.314000000     0.296000000     3.895000000
C    -2.063000000     2.625000000     2.789000000
O    -1.922000000     4.013000000     2.560000000
H    -1.414000000     2.081000000     2.088000000
O    -1.585000000     2.294000000     4.125000000
C    -0.319000000     1.769000000     4.314000000
C    -0.184000000     0.355000000     4.383000000
H    -1.137000000    -0.167000000     4.336000000
C     1.037000000    -0.252000000     4.440000000
O     0.997000000    -1.656000000     4.341000000
C     2.253000000     0.495000000     4.369000000
C     3.633000000    -0.170000000     4.156000000
H     4.399000000     0.541000000     4.471000000
C     3.900000000    -0.509000000     2.674000000
C     4.648000000     0.307000000     1.877000000
H     4.950000000     1.262000000     2.300000000
H     3.750000000    -1.068000000     4.766000000
C     2.104000000     1.916000000     4.276000000
H     2.988000000     2.543000000     4.192000000
C     0.832000000     2.524000000     4.213000000
C     0.729000000     4.038000000     3.947000000
H     1.636000000     4.604000000     4.171000000
H    -0.086000000     4.427000000     4.561000000
C     0.495000000     4.330000000     2.463000000
C     1.584000000     4.513000000     1.587000000
H     2.600000000     4.372000000     1.947000000
C    -0.790000000     4.386000000     1.876000000
C    -0.962000000     4.670000000     0.497000000
H    -1.937000000     4.780000000     0.029000000
C     0.143000000     4.888000000    -0.301000000
O    -0.020000000     4.812000000    -1.660000000
C     0.216000000     3.587000000    -2.371000000
C    -0.893000000     3.243000000    -3.349000000
C    -0.671000000     2.569000000    -4.529000000
H     0.340000000     2.299000000    -4.822000000
C    -2.179000000     3.500000000    -2.980000000
H    -2.358000000     3.955000000    -2.009000000
O     1.513000000     3.760000000    -3.024000000
H     0.273000000     2.730000000    -1.684000000
C     1.438000000     4.717000000     0.202000000
C     2.716000000     4.876000000    -0.660000000
H     3.480000000     5.417000000    -0.098000000
H     2.478000000     5.598000000    -1.444000000
C     3.156000000     3.561000000    -1.299000000
C     4.247000000     2.901000000    -0.735000000
H     4.663000000     3.308000000     0.183000000
C     2.526000000     3.036000000    -2.430000000
C     3.013000000     1.845000000    -2.966000000
H     2.512000000     1.392000000    -3.818000000
C     4.035000000     1.128000000    -2.402000000
O     4.205000000    -0.202000000    -2.848000000
C     3.799000000    -1.223000000    -1.976000000
C     3.073000000    -2.375000000    -2.765000000
C     1.985000000    -2.100000000    -3.481000000
H     1.564000000    -1.101000000    -3.566000000
C     3.513000000    -3.703000000    -2.569000000
H     4.355000000    -3.941000000    -1.925000000
O     4.851000000    -1.752000000    -1.157000000
H     3.032000000    -0.768000000    -1.332000000
C     4.661000000     1.706000000    -1.292000000
C     5.670000000     0.944000000    -0.330000000
H     6.101000000     1.730000000     0.295000000
H     6.428000000     0.412000000    -0.909000000
C     5.034000000    -0.049000000     0.590000000
C     4.747000000    -1.338000000     0.160000000
C     4.096000000    -2.245000000     1.039000000
H     3.975000000    -3.234000000     0.605000000
C     3.603000000    -1.779000000     2.284000000
O     2.847000000    -2.599000000     3.089000000
C     1.416000000    -2.233000000     3.090000000
H     1.155000000    -1.461000000     2.351000000
C     0.529000000    -3.445000000     2.801000000
C    -0.870000000    -3.256000000     2.807000000
H    -1.314000000    -2.307000000     3.098000000
C     1.058000000    -4.614000000     2.331000000
H     2.134000000    -4.763000000     2.379000000
C     0.284000000    -5.643000000     1.885000000
O     0.847000000    -6.809000000     1.464000000
C    -1.084000000    -5.482000000     1.823000000
H    -1.688000000    -6.099000000     1.163000000
C    -1.672000000    -4.314000000     2.293000000
O    -3.070000000    -4.080000000     2.183000000
C    -3.777000000    -3.497000000     3.286000000
C    -4.336000000    -2.200000000     3.089000000
H    -4.214000000    -1.667000000     2.149000000
C    -3.912000000    -4.171000000     4.479000000
H    -3.481000000    -5.169000000     4.503000000
C    -4.655000000    -3.569000000     5.543000000
H    -4.761000000    -4.119000000     6.475000000
C    -5.244000000    -2.371000000     5.337000000
H    -5.870000000    -2.022000000     6.154000000
C    -5.152000000    -1.636000000     4.093000000
O    -5.751000000    -0.377000000     3.936000000
C    -5.280000000     0.673000000     3.199000000
C    -6.126000000     1.457000000     2.380000000
H    -7.186000000     1.245000000     2.270000000
C    -5.647000000     2.514000000     1.651000000
O    -6.489000000     3.280000000     0.927000000
C    -6.072000000     4.014000000    -0.162000000
C    -5.388000000     3.314000000    -1.179000000
H    -5.285000000     2.239000000    -1.051000000
C    -6.042000000     5.428000000    -0.141000000
H    -6.523000000     6.028000000     0.627000000
C    -5.506000000     6.151000000    -1.207000000
H    -5.548000000     7.235000000    -1.268000000
C    -4.998000000     5.450000000    -2.287000000
H    -4.767000000     6.040000000    -3.170000000
C    -4.976000000     4.065000000    -2.310000000
O    -4.557000000     3.387000000    -3.450000000
C    -3.238000000     3.185000000    -3.805000000
C    -3.022000000     2.640000000    -5.014000000
H    -3.856000000     2.328000000    -5.637000000
C    -1.742000000     2.228000000    -5.376000000
O    -1.509000000     1.463000000    -6.518000000
C    -0.993000000     0.157000000    -6.579000000
C    -1.029000000    -0.894000000    -5.588000000
H    -1.473000000    -0.736000000    -4.608000000
C    -0.654000000    -0.251000000    -7.870000000
H    -0.676000000     0.428000000    -8.719000000
C    -0.056000000    -1.472000000    -8.059000000
H     0.267000000    -1.732000000    -9.063000000
C     0.099000000    -2.437000000    -7.015000000
H     0.616000000    -3.368000000    -7.235000000
C    -0.328000000    -2.070000000    -5.751000000
O    -0.058000000    -2.925000000    -4.627000000
C     1.220000000    -3.120000000    -4.079000000
C     1.584000000    -4.405000000    -3.894000000
H     0.953000000    -5.157000000    -4.362000000
C     2.701000000    -4.675000000    -3.107000000
O     2.919000000    -6.006000000    -2.775000000
C     2.981000000    -6.445000000    -1.468000000
C     4.187000000    -6.900000000    -0.937000000
H     5.057000000    -6.938000000    -1.587000000
C     4.275000000    -7.253000000     0.435000000
H     5.198000000    -7.607000000     0.887000000
C     3.124000000    -7.238000000     1.177000000
H     3.244000000    -7.504000000     2.224000000
C     1.953000000    -6.821000000     0.585000000
C     1.836000000    -6.334000000    -0.728000000
H     0.913000000    -5.956000000    -1.162000000
C    -2.461000000     0.071000000    -1.228000000
H    -3.394000000     0.586000000    -1.442000000
C    -1.404000000     0.777000000    -0.501000000
H    -1.490000000     1.813000000    -0.181000000
C    -0.219000000     0.077000000    -0.222000000
C     0.907000000     0.738000000     0.612000000
H     1.886000000     0.344000000     0.332000000
H     0.870000000     1.801000000     0.366000000
H     0.757000000     0.662000000     1.691000000
C    -0.052000000    -1.261000000    -0.760000000
H     0.873000000    -1.817000000    -0.633000000
C    -1.092000000    -1.857000000    -1.432000000
H    -0.981000000    -2.867000000    -1.819000000
C    -2.338000000    -1.238000000    -1.640000000
C    -3.587000000    -1.917000000    -2.184000000
O    -3.533000000    -3.117000000    -2.367000000
O    -4.590000000    -1.323000000    -2.497000000
O    -7.015000000    -3.204000000     1.608000000
H    -6.279000000    -2.822000000     1.129000000
H    -7.599000000    -2.465000000     1.778000000
O    -3.680000000    -1.993000000    -7.912000000
H    -4.158000000    -1.170000000    -8.016000000
H    -3.748000000    -2.193000000    -6.978000000
O    -2.377000000    -4.707000000    -4.355000000
H    -1.619000000    -4.168000000    -4.581000000
H    -2.816000000    -4.222000000    -3.656000000
O    -9.518000000    -2.828000000     0.176000000
H    -9.042000000    -3.381000000     0.796000000
H    -8.975000000    -2.831000000    -0.612000000
O    -5.854000000    -1.245000000     0.187000000
H    -6.706000000    -0.825000000     0.068000000
H    -5.586000000    -1.497000000    -0.697000000
O    -7.511000000    -3.727000000    -4.945000000
H    -7.658000000    -4.551000000    -5.410000000
H    -7.330000000    -3.989000000    -4.043000000
O    -4.903000000     0.310000000    -7.866000000
H    -5.717000000     0.259000000    -8.367000000
H    -5.061000000     0.999000000    -7.221000000
O    -2.531000000    -7.704000000    -1.712000000
H    -3.013000000    -6.978000000    -1.316000000
H    -2.179000000    -8.192000000    -0.968000000
O    -1.071000000    -6.878000000    -3.819000000
H    -1.576000000    -6.102000000    -4.063000000
H    -1.486000000    -7.190000000    -3.015000000
O    -8.367000000    -1.183000000    -2.905000000
H    -8.894000000    -0.846000000    -2.180000000
H    -7.877000000    -0.423000000    -3.219000000
O    -8.338000000    -0.119000000    -0.320000000
H    -8.623000000     0.765000000    -0.090000000
H    -8.660000000    -0.668000000     0.395000000
O    -6.136000000     0.450000000    -3.777000000
H    -5.788000000     1.336000000    -3.670000000
H    -5.480000000    -0.116000000    -3.370000000
O    -3.253000000    -5.202000000    -0.847000000
H    -3.875000000    -5.204000000    -0.119000000
H    -3.417000000    -4.376000000    -1.301000000
O    -5.601000000    -5.751000000     0.733000000
H    -5.886000000    -5.654000000    -0.175000000
H    -5.695000000    -4.875000000     1.108000000
O    -6.526000000    -3.280000000    -2.413000000
H    -5.634000000    -2.941000000    -2.487000000
H    -7.085000000    -2.519000000    -2.569000000
O    -3.712000000    -5.607000000    -6.674000000
H    -3.999000000    -4.900000000    -7.252000000
H    -3.803000000    -5.248000000    -5.792000000
O    -8.814000000     0.484000000    -5.211000000
H    -8.964000000     0.968000000    -6.023000000
H    -7.864000000     0.505000000    -5.092000000
O    -4.744000000    -3.252000000    -5.458000000
H    -5.677000000    -3.088000000    -5.598000000
H    -4.592000000    -3.003000000    -4.546000000
O    -7.022000000    -5.693000000    -1.374000000
H    -6.677000000    -4.894000000    -1.772000000
H    -7.910000000    -5.770000000    -1.722000000
