218
-1475.12459
C    -4.379000000     1.632000000     2.214000000
H    -4.185000000     2.681000000     2.006000000
C    -3.339000000     1.002000000     2.900000000
C    -3.317000000    -0.379000000     3.032000000
H    -2.557000000    -0.916000000     3.593000000
C    -1.982000000     1.699000000     3.211000000
O    -2.055000000     3.167000000     3.244000000
H    -1.297000000     1.518000000     2.369000000
O    -1.415000000     1.108000000     4.424000000
C    -0.069000000     0.812000000     4.391000000
C     0.270000000    -0.515000000     4.504000000
H    -0.499000000    -1.282000000     4.544000000
C     1.602000000    -0.892000000     4.324000000
O     1.876000000    -2.246000000     4.223000000
C     2.619000000     0.068000000     4.112000000
C     4.108000000    -0.265000000     3.954000000
H     4.670000000     0.590000000     4.334000000
C     4.375000000    -0.595000000     2.499000000
C     4.812000000     0.429000000     1.619000000
H     5.040000000     1.440000000     1.945000000
H     4.376000000    -1.073000000     4.638000000
C     2.185000000     1.395000000     4.101000000
H     2.959000000     2.139000000     3.931000000
C     0.892000000     1.814000000     4.318000000
C     0.549000000     3.301000000     4.300000000
H     1.424000000     3.855000000     4.645000000
H    -0.198000000     3.548000000     5.057000000
C     0.174000000     3.809000000     2.950000000
C     1.222000000     4.190000000     2.073000000
H     2.269000000     4.160000000     2.363000000
C    -1.134000000     3.915000000     2.574000000
C    -1.475000000     4.387000000     1.287000000
H    -2.501000000     4.338000000     0.931000000
C    -0.464000000     4.914000000     0.469000000
O    -0.827000000     5.095000000    -0.804000000
C    -0.511000000     4.029000000    -1.726000000
C    -1.714000000     3.800000000    -2.697000000
C    -1.512000000     3.273000000    -3.960000000
H    -0.498000000     2.989000000    -4.231000000
C    -3.020000000     4.079000000    -2.272000000
H    -3.243000000     4.495000000    -1.293000000
O     0.685000000     4.263000000    -2.483000000
H    -0.379000000     3.071000000    -1.203000000
C     0.863000000     4.774000000     0.834000000
C     1.957000000     5.194000000    -0.161000000
H     2.739000000     5.660000000     0.442000000
H     1.587000000     5.976000000    -0.828000000
C     2.476000000     4.040000000    -0.997000000
C     3.658000000     3.369000000    -0.646000000
H     4.229000000     3.703000000     0.217000000
C     1.809000000     3.587000000    -2.129000000
C     2.255000000     2.548000000    -2.948000000
H     1.750000000     2.325000000    -3.885000000
C     3.363000000     1.847000000    -2.487000000
O     3.673000000     0.608000000    -3.174000000
C     3.257000000    -0.556000000    -2.470000000
C     2.664000000    -1.560000000    -3.447000000
C     2.122000000    -1.083000000    -4.634000000
H     2.021000000    -0.012000000    -4.788000000
C     2.669000000    -2.940000000    -3.136000000
H     3.108000000    -3.294000000    -2.207000000
O     4.357000000    -1.072000000    -1.667000000
H     2.435000000    -0.356000000    -1.767000000
C     3.985000000     2.212000000    -1.257000000
C     5.218000000     1.454000000    -0.734000000
H     5.873000000     2.179000000    -0.247000000
H     5.837000000     1.067000000    -1.546000000
C     4.758000000     0.321000000     0.223000000
C     4.398000000    -0.926000000    -0.289000000
C     3.965000000    -2.027000000     0.517000000
H     3.536000000    -2.892000000     0.017000000
C     3.967000000    -1.831000000     1.926000000
O     3.486000000    -2.800000000     2.757000000
C     2.055000000    -2.694000000     2.934000000
H     1.616000000    -1.922000000     2.286000000
C     1.347000000    -4.045000000     2.683000000
C     0.203000000    -4.384000000     3.397000000
H    -0.231000000    -3.740000000     4.157000000
C     1.901000000    -5.073000000     1.849000000
H     2.826000000    -4.898000000     1.305000000
C     1.240000000    -6.258000000     1.633000000
O     1.652000000    -7.167000000     0.630000000
C     0.125000000    -6.545000000     2.440000000
H    -0.304000000    -7.511000000     2.186000000
C    -0.392000000    -5.590000000     3.299000000
O    -1.489000000    -5.920000000     4.075000000
C    -2.444000000    -4.949000000     4.398000000
C    -2.901000000    -4.204000000     3.368000000
H    -2.580000000    -4.318000000     2.335000000
C    -2.700000000    -4.687000000     5.753000000
H    -2.231000000    -5.286000000     6.529000000
C    -3.561000000    -3.612000000     6.062000000
H    -3.827000000    -3.434000000     7.101000000
C    -4.123000000    -2.876000000     5.010000000
H    -4.835000000    -2.097000000     5.270000000
C    -3.793000000    -3.232000000     3.703000000
O    -4.319000000    -2.510000000     2.659000000
C    -4.376000000    -1.183000000     2.542000000
C    -5.432000000    -0.494000000     1.925000000
H    -6.244000000    -1.129000000     1.582000000
C    -5.407000000     0.876000000     1.657000000
O    -6.444000000     1.542000000     1.008000000
C    -6.411000000     2.822000000     0.319000000
C    -5.858000000     2.915000000    -0.932000000
H    -5.471000000     2.026000000    -1.423000000
C    -6.982000000     3.994000000     0.904000000
H    -7.420000000     3.982000000     1.899000000
C    -7.159000000     5.165000000     0.162000000
H    -7.430000000     6.106000000     0.633000000
C    -6.565000000     5.310000000    -1.057000000
H    -6.625000000     6.190000000    -1.692000000
C    -5.951000000     4.147000000    -1.612000000
O    -5.432000000     4.225000000    -2.895000000
C    -4.111000000     3.922000000    -3.133000000
C    -3.896000000     3.273000000    -4.370000000
H    -4.709000000     3.099000000    -5.071000000
C    -2.628000000     2.870000000    -4.669000000
O    -2.425000000     2.116000000    -5.830000000
C    -1.170000000     1.620000000    -6.270000000
C    -0.826000000     0.300000000    -6.101000000
H    -1.495000000    -0.322000000    -5.512000000
C    -0.332000000     2.485000000    -7.021000000
H    -0.656000000     3.503000000    -7.224000000
C     0.863000000     2.013000000    -7.552000000
H     1.525000000     2.690000000    -8.086000000
C     1.192000000     0.653000000    -7.406000000
H     2.129000000     0.249000000    -7.781000000
C     0.326000000    -0.198000000    -6.650000000
O     0.699000000    -1.460000000    -6.478000000
C     1.479000000    -1.929000000    -5.483000000
C     1.470000000    -3.294000000    -5.239000000
H     0.891000000    -3.977000000    -5.856000000
C     2.025000000    -3.808000000    -4.050000000
O     1.845000000    -5.087000000    -3.654000000
C     2.459000000    -5.730000000    -2.615000000
C     3.711000000    -6.199000000    -2.754000000
H     4.326000000    -5.867000000    -3.586000000
C     4.247000000    -7.120000000    -1.818000000
H     5.209000000    -7.618000000    -1.907000000
C     3.558000000    -7.389000000    -0.663000000
H     3.954000000    -8.160000000    -0.006000000
C     2.314000000    -6.845000000    -0.471000000
C     1.741000000    -6.022000000    -1.460000000
H     0.736000000    -5.637000000    -1.310000000
C    -2.797000000     0.465000000    -1.241000000
H    -3.703000000     1.052000000    -1.113000000
C    -1.864000000     0.680000000    -0.289000000
H    -1.975000000     1.388000000     0.529000000
C    -0.645000000     0.025000000    -0.402000000
C     0.480000000     0.245000000     0.594000000
H     0.241000000     1.000000000     1.346000000
H     0.722000000    -0.716000000     1.051000000
H     1.314000000     0.623000000    -0.001000000
C    -0.354000000    -0.855000000    -1.516000000
H     0.635000000    -1.273000000    -1.681000000
C    -1.380000000    -1.084000000    -2.449000000
H    -1.248000000    -1.719000000    -3.321000000
C    -2.599000000    -0.452000000    -2.284000000
C    -3.660000000    -0.600000000    -3.321000000
O    -3.431000000    -1.323000000    -4.250000000
O    -4.779000000    -0.218000000    -3.073000000
O    -5.454000000     1.409000000    -7.974000000
H    -6.236000000     1.420000000    -7.422000000
H    -4.845000000     0.830000000    -7.515000000
O    -2.466000000    -3.549000000    -5.167000000
H    -2.650000000    -3.611000000    -6.104000000
H    -2.854000000    -2.715000000    -4.901000000
O    -1.872000000    -0.498000000    -9.140000000
H    -2.321000000    -0.612000000    -8.302000000
H    -2.470000000    -0.876000000    -9.785000000
O    -9.322000000     2.293000000    -3.610000000
H    -9.508000000     2.110000000    -4.531000000
H    -8.385000000     2.125000000    -3.516000000
O    -1.647000000    -4.736000000    -2.859000000
H    -0.763000000    -4.969000000    -3.141000000
H    -1.990000000    -4.193000000    -3.568000000
O    -8.140000000    -4.823000000    -5.265000000
H    -8.995000000    -5.205000000    -5.071000000
H    -8.118000000    -4.014000000    -4.753000000
O    -6.875000000    -1.077000000    -8.954000000
H    -6.086000000    -0.610000000    -9.231000000
H    -6.701000000    -1.325000000    -8.046000000
O    -5.039000000    -5.434000000     0.789000000
H    -4.669000000    -4.631000000     0.423000000
H    -5.557000000    -5.807000000     0.076000000
O    -7.714000000    -3.827000000    -0.330000000
H    -6.890000000    -3.406000000    -0.577000000
H    -7.960000000    -3.405000000     0.493000000
O    -4.326000000    -3.393000000    -1.031000000
H    -3.523000000    -3.386000000    -1.551000000
H    -4.944000000    -2.867000000    -1.538000000
O    -6.605000000     1.708000000    -3.603000000
H    -5.895000000     1.079000000    -3.474000000
H    -6.224000000     2.551000000    -3.356000000
O    -5.988000000    -2.317000000    -4.312000000
H    -6.398000000    -2.141000000    -3.465000000
H    -5.174000000    -1.813000000    -4.292000000
O    -6.224000000    -1.499000000    -1.372000000
H    -5.594000000    -1.056000000    -1.941000000
H    -6.293000000    -0.932000000    -0.604000000
O    -8.759000000    -3.086000000    -2.820000000
H    -8.399000000    -3.409000000    -1.994000000
H    -9.664000000    -2.853000000    -2.612000000
O    -2.567000000    -4.340000000    -7.591000000
H    -3.310000000    -4.835000000    -7.937000000
H    -1.991000000    -4.214000000    -8.345000000
O    -6.350000000    -2.811000000    -6.971000000
H    -6.121000000    -2.406000000    -6.134000000
H    -7.172000000    -3.270000000    -6.798000000
O    -5.527000000    -5.360000000    -4.321000000
H    -6.471000000    -5.393000000    -4.473000000
H    -5.255000000    -4.518000000    -4.686000000
O    -4.014000000    -0.934000000    -7.084000000
H    -4.622000000    -1.653000000    -6.913000000
H    -3.506000000    -0.853000000    -6.277000000
O    -7.096000000     0.240000000    -6.015000000
H    -7.660000000    -0.532000000    -6.064000000
H    -6.917000000     0.346000000    -5.080000000
