218
-1464.76828
C    -4.329000000     2.183000000     1.428000000
H    -3.922000000     3.055000000     0.923000000
C    -3.676000000     1.751000000     2.577000000
C    -4.251000000     0.764000000     3.373000000
H    -3.741000000     0.422000000     4.270000000
C    -2.273000000     2.364000000     2.806000000
O    -2.141000000     3.803000000     2.632000000
H    -1.695000000     1.751000000     2.098000000
O    -1.930000000     2.062000000     4.174000000
C    -0.728000000     1.524000000     4.387000000
C    -0.516000000     0.165000000     4.336000000
H    -1.349000000    -0.504000000     4.537000000
C     0.708000000    -0.459000000     4.335000000
O     0.626000000    -1.830000000     4.399000000
C     1.835000000     0.283000000     4.247000000
C     3.209000000    -0.364000000     4.412000000
H     3.958000000     0.367000000     4.723000000
C     3.708000000    -0.897000000     3.022000000
C     4.551000000    -0.056000000     2.246000000
H     4.889000000     0.893000000     2.656000000
H     3.121000000    -1.159000000     5.155000000
C     1.731000000     1.702000000     4.244000000
H     2.579000000     2.352000000     4.446000000
C     0.433000000     2.293000000     4.280000000
C     0.345000000     3.799000000     4.224000000
H     1.209000000     4.280000000     4.688000000
H    -0.577000000     4.243000000     4.606000000
C     0.293000000     4.158000000     2.693000000
C     1.425000000     4.412000000     1.989000000
H     2.345000000     4.424000000     2.568000000
C    -0.916000000     4.112000000     2.014000000
C    -0.940000000     4.419000000     0.601000000
H    -1.924000000     4.312000000     0.154000000
C     0.233000000     4.744000000    -0.030000000
O     0.180000000     4.974000000    -1.398000000
C     0.362000000     3.806000000    -2.275000000
C    -0.596000000     3.741000000    -3.437000000
C    -0.165000000     3.262000000    -4.641000000
H     0.874000000     2.965000000    -4.765000000
C    -1.901000000     3.876000000    -3.170000000
H    -2.249000000     4.127000000    -2.172000000
O     1.737000000     3.837000000    -2.750000000
H     0.227000000     2.961000000    -1.585000000
C     1.437000000     4.679000000     0.654000000
C     2.759000000     4.774000000    -0.083000000
H     3.520000000     5.065000000     0.644000000
H     2.719000000     5.650000000    -0.733000000
C     3.187000000     3.515000000    -0.813000000
C     4.165000000     2.686000000    -0.188000000
H     4.743000000     3.052000000     0.657000000
C     2.642000000     3.071000000    -2.050000000
C     2.991000000     1.853000000    -2.594000000
H     2.553000000     1.525000000    -3.533000000
C     3.918000000     1.063000000    -1.946000000
O     4.259000000    -0.134000000    -2.565000000
C     3.682000000    -1.264000000    -1.829000000
C     3.016000000    -2.207000000    -2.807000000
C     2.331000000    -1.667000000    -3.909000000
H     2.394000000    -0.619000000    -4.188000000
C     2.890000000    -3.587000000    -2.530000000
H     3.233000000    -4.044000000    -1.606000000
O     4.601000000    -1.980000000    -0.947000000
H     2.884000000    -0.792000000    -1.236000000
C     4.586000000     1.445000000    -0.770000000
C     5.625000000     0.627000000    -0.029000000
H     6.319000000     1.362000000     0.382000000
H     6.207000000     0.049000000    -0.750000000
C     4.852000000    -0.347000000     0.886000000
C     4.443000000    -1.583000000     0.385000000
C     3.736000000    -2.406000000     1.251000000
H     3.473000000    -3.356000000     0.794000000
C     3.246000000    -2.012000000     2.455000000
O     2.361000000    -2.839000000     3.011000000
C     0.954000000    -2.475000000     3.119000000
H     0.806000000    -1.683000000     2.370000000
C     0.049000000    -3.648000000     2.846000000
C    -1.216000000    -3.798000000     3.399000000
H    -1.411000000    -2.939000000     4.034000000
C     0.498000000    -4.676000000     1.990000000
H     1.501000000    -4.718000000     1.572000000
C    -0.342000000    -5.766000000     1.713000000
O     0.175000000    -6.903000000     1.113000000
C    -1.674000000    -5.800000000     2.193000000
H    -2.262000000    -6.691000000     1.990000000
C    -2.124000000    -4.808000000     3.019000000
O    -3.386000000    -4.884000000     3.562000000
C    -3.832000000    -3.913000000     4.297000000
C    -4.621000000    -2.932000000     3.660000000
H    -4.689000000    -3.023000000     2.579000000
C    -3.598000000    -3.733000000     5.638000000
H    -2.950000000    -4.429000000     6.163000000
C    -4.172000000    -2.615000000     6.312000000
H    -3.952000000    -2.433000000     7.361000000
C    -5.028000000    -1.713000000     5.683000000
H    -5.415000000    -0.806000000     6.139000000
C    -5.239000000    -1.913000000     4.354000000
O    -5.951000000    -0.973000000     3.681000000
C    -5.389000000     0.052000000     2.938000000
C    -6.034000000     0.553000000     1.781000000
H    -7.022000000     0.177000000     1.526000000
C    -5.536000000     1.568000000     1.047000000
O    -6.265000000     2.019000000    -0.095000000
C    -5.979000000     3.076000000    -0.942000000
C    -5.283000000     2.857000000    -2.165000000
H    -5.096000000     1.826000000    -2.454000000
C    -6.148000000     4.356000000    -0.464000000
H    -6.568000000     4.501000000     0.528000000
C    -5.621000000     5.405000000    -1.175000000
H    -5.768000000     6.441000000    -0.882000000
C    -5.071000000     5.265000000    -2.413000000
H    -4.753000000     6.104000000    -3.027000000
C    -4.829000000     4.011000000    -2.891000000
O    -4.144000000     3.850000000    -4.076000000
C    -2.766000000     3.768000000    -4.229000000
C    -2.391000000     3.351000000    -5.487000000
H    -3.096000000     3.133000000    -6.285000000
C    -1.028000000     3.039000000    -5.752000000
O    -0.568000000     2.430000000    -6.923000000
C     0.397000000     1.465000000    -6.992000000
C     0.240000000     0.300000000    -6.276000000
H    -0.664000000     0.225000000    -5.677000000
C     1.543000000     1.665000000    -7.766000000
H     1.741000000     2.643000000    -8.200000000
C     2.390000000     0.562000000    -7.884000000
H     3.282000000     0.618000000    -8.503000000
C     2.242000000    -0.658000000    -7.211000000
H     2.918000000    -1.463000000    -7.489000000
C     1.125000000    -0.753000000    -6.391000000
O     0.843000000    -1.970000000    -5.833000000
C     1.552000000    -2.475000000    -4.730000000
C     1.456000000    -3.792000000    -4.457000000
H     0.908000000    -4.447000000    -5.130000000
C     2.112000000    -4.343000000    -3.386000000
O     1.903000000    -5.760000000    -3.178000000
C     2.112000000    -6.431000000    -1.971000000
C     3.116000000    -7.349000000    -1.775000000
H     3.738000000    -7.627000000    -2.622000000
C     3.227000000    -8.026000000    -0.535000000
H     4.000000000    -8.770000000    -0.361000000
C     2.301000000    -7.747000000     0.462000000
H     2.456000000    -8.217000000     1.429000000
C     1.219000000    -6.865000000     0.249000000
C     1.141000000    -6.217000000    -0.975000000
H     0.340000000    -5.528000000    -1.229000000
C    -2.709000000    -0.855000000    -0.142000000
H    -3.715000000    -0.458000000    -0.031000000
C    -1.609000000    -0.038000000    -0.019000000
H    -1.733000000     1.015000000     0.219000000
C    -0.301000000    -0.465000000    -0.146000000
C     0.817000000     0.478000000     0.312000000
H     0.514000000     1.182000000     1.089000000
H     1.633000000    -0.088000000     0.766000000
H     1.273000000     0.968000000    -0.551000000
C    -0.033000000    -1.805000000    -0.419000000
H     0.980000000    -2.189000000    -0.511000000
C    -1.128000000    -2.695000000    -0.475000000
H    -0.983000000    -3.741000000    -0.732000000
C    -2.470000000    -2.210000000    -0.413000000
C    -3.662000000    -3.088000000    -0.703000000
O    -3.475000000    -4.210000000    -1.202000000
O    -4.759000000    -2.807000000    -0.246000000
O    -3.762000000    -8.435000000    -1.874000000
H    -3.033000000    -8.640000000    -1.287000000
H    -4.455000000    -8.122000000    -1.293000000
O    -7.754000000    -6.501000000     2.864000000
H    -7.758000000    -6.004000000     2.045000000
H    -7.566000000    -7.401000000     2.597000000
O    -1.562000000    -8.780000000    -0.366000000
H    -1.227000000    -9.533000000     0.121000000
H    -1.063000000    -8.036000000    -0.030000000
O    -4.983000000    -6.031000000     0.007000000
H    -5.534000000    -5.386000000     0.450000000
H    -4.411000000    -5.511000000    -0.558000000
O    -4.911000000    -8.742000000     1.012000000
H    -4.652000000    -7.834000000     1.172000000
H    -5.792000000    -8.808000000     1.380000000
O    -8.644000000    -3.182000000     2.272000000
H    -8.044000000    -3.206000000     1.527000000
H    -8.802000000    -4.103000000     2.482000000
O    -4.282000000    -5.677000000    -3.315000000
H    -3.949000000    -4.999000000    -2.728000000
H    -5.095000000    -5.970000000    -2.905000000
O    -7.222000000    -3.570000000    -0.118000000
H    -7.567000000    -3.225000000    -0.942000000
H    -6.301000000    -3.312000000    -0.117000000
O    -4.362000000    -1.029000000    -4.327000000
H    -3.466000000    -1.368000000    -4.326000000
H    -4.611000000    -1.012000000    -3.403000000
O    -5.114000000    -4.183000000    -6.802000000
H    -5.556000000    -3.775000000    -6.058000000
H    -4.906000000    -5.068000000    -6.501000000
O    -7.230000000    -5.885000000    -2.715000000
H    -7.986000000    -6.471000000    -2.738000000
H    -6.894000000    -5.892000000    -3.612000000
O    -1.530000000    -4.178000000    -5.321000000
H    -1.844000000    -4.115000000    -6.223000000
H    -1.712000000    -3.317000000    -4.944000000
O    -1.791000000    -6.151000000    -1.971000000
H    -2.294000000    -5.556000000    -1.414000000
H    -2.441000000    -6.763000000    -2.316000000
O    -8.210000000    -6.147000000     0.038000000
H    -7.908000000    -5.248000000    -0.094000000
H    -7.828000000    -6.638000000    -0.689000000
O    -1.514000000    -1.846000000    -3.788000000
H    -0.716000000    -1.887000000    -4.314000000
H    -1.205000000    -1.703000000    -2.893000000
O    -8.066000000    -2.525000000    -2.897000000
H    -7.202000000    -2.163000000    -3.093000000
H    -8.163000000    -3.258000000    -3.505000000
O    -6.599000000    -0.140000000    -5.640000000
H    -5.852000000    -0.408000000    -5.106000000
H    -6.452000000     0.790000000    -5.810000000
O    -5.747000000    -1.240000000    -2.046000000
H    -5.305000000    -1.765000000    -1.379000000
H    -6.548000000    -0.937000000    -1.621000000
O    -4.009000000    -6.463000000    -5.957000000
H    -3.954000000    -6.421000000    -5.002000000
H    -3.277000000    -7.023000000    -6.215000000
