218
-1484.85033
C    -4.367000000     2.286000000     1.640000000
H    -3.893000000     3.097000000     1.094000000
C    -3.670000000     1.700000000     2.652000000
C    -4.232000000     0.634000000     3.311000000
H    -3.769000000     0.259000000     4.220000000
C    -2.288000000     2.084000000     2.936000000
O    -2.088000000     3.475000000     2.709000000
H    -1.667000000     1.430000000     2.305000000
O    -1.839000000     1.631000000     4.282000000
C    -0.541000000     1.122000000     4.382000000
C    -0.338000000    -0.261000000     4.440000000
H    -1.175000000    -0.928000000     4.247000000
C     0.885000000    -0.872000000     4.461000000
O     0.868000000    -2.244000000     4.402000000
C     1.987000000    -0.071000000     4.476000000
C     3.412000000    -0.588000000     4.395000000
H     4.101000000     0.105000000     4.881000000
C     3.784000000    -0.966000000     2.988000000
C     4.526000000    -0.062000000     2.211000000
H     4.641000000     0.885000000     2.732000000
H     3.569000000    -1.470000000     5.020000000
C     1.821000000     1.294000000     4.439000000
H     2.628000000     2.022000000     4.475000000
C     0.574000000     1.946000000     4.368000000
C     0.510000000     3.469000000     4.333000000
H     1.428000000     3.933000000     4.699000000
H    -0.360000000     3.820000000     4.892000000
C     0.376000000     3.854000000     2.846000000
C     1.519000000     4.179000000     2.108000000
H     2.485000000     4.153000000     2.607000000
C    -0.872000000     3.882000000     2.200000000
C    -0.990000000     4.336000000     0.884000000
H    -1.965000000     4.255000000     0.410000000
C     0.182000000     4.699000000     0.218000000
O    -0.006000000     4.969000000    -1.101000000
C     0.276000000     3.882000000    -2.069000000
C    -0.714000000     3.807000000    -3.170000000
C    -0.373000000     3.072000000    -4.346000000
H     0.648000000     2.755000000    -4.542000000
C    -2.074000000     4.112000000    -2.932000000
H    -2.462000000     4.605000000    -2.045000000
O     1.656000000     3.922000000    -2.614000000
H     0.272000000     2.938000000    -1.504000000
C     1.457000000     4.615000000     0.767000000
C     2.750000000     4.848000000    -0.017000000
H     3.469000000     5.160000000     0.743000000
H     2.623000000     5.585000000    -0.813000000
C     3.122000000     3.593000000    -0.672000000
C     4.141000000     2.811000000    -0.058000000
H     4.452000000     3.195000000     0.910000000
C     2.663000000     3.222000000    -1.917000000
C     2.978000000     2.019000000    -2.525000000
H     2.619000000     1.778000000    -3.523000000
C     3.904000000     1.253000000    -1.875000000
O     4.154000000     0.084000000    -2.477000000
C     3.635000000    -1.144000000    -1.861000000
C     3.074000000    -2.063000000    -2.833000000
C     2.627000000    -1.589000000    -4.021000000
H     2.763000000    -0.569000000    -4.372000000
C     3.054000000    -3.441000000    -2.611000000
H     3.404000000    -3.903000000    -1.691000000
O     4.661000000    -1.784000000    -1.099000000
H     2.791000000    -0.827000000    -1.231000000
C     4.551000000     1.605000000    -0.656000000
C     5.579000000     0.712000000    -0.014000000
H     6.333000000     1.288000000     0.527000000
H     6.101000000     0.235000000    -0.846000000
C     4.882000000    -0.346000000     0.874000000
C     4.638000000    -1.654000000     0.307000000
C     3.752000000    -2.446000000     1.007000000
H     3.348000000    -3.351000000     0.561000000
C     3.372000000    -2.139000000     2.313000000
O     2.547000000    -3.016000000     2.949000000
C     1.123000000    -2.761000000     3.068000000
H     0.840000000    -1.989000000     2.337000000
C     0.262000000    -3.935000000     2.706000000
C    -1.141000000    -3.834000000     2.898000000
H    -1.593000000    -2.932000000     3.302000000
C     0.714000000    -5.050000000     2.005000000
H     1.791000000    -5.187000000     1.962000000
C    -0.181000000    -6.085000000     1.583000000
O     0.282000000    -7.158000000     0.905000000
C    -1.559000000    -5.878000000     1.746000000
H    -2.178000000    -6.716000000     1.435000000
C    -2.030000000    -4.789000000     2.404000000
O    -3.407000000    -4.650000000     2.569000000
C    -4.037000000    -3.794000000     3.476000000
C    -4.873000000    -2.705000000     3.087000000
H    -5.104000000    -2.536000000     2.038000000
C    -3.917000000    -4.057000000     4.891000000
H    -3.202000000    -4.827000000     5.167000000
C    -4.683000000    -3.276000000     5.813000000
H    -4.587000000    -3.470000000     6.878000000
C    -5.515000000    -2.207000000     5.431000000
H    -6.012000000    -1.488000000     6.077000000
C    -5.454000000    -1.884000000     4.069000000
O    -6.120000000    -0.821000000     3.599000000
C    -5.556000000     0.205000000     2.904000000
C    -6.297000000     0.888000000     1.938000000
H    -7.320000000     0.604000000     1.706000000
C    -5.659000000     1.920000000     1.350000000
O    -6.297000000     2.431000000     0.242000000
C    -5.940000000     3.441000000    -0.540000000
C    -5.178000000     3.159000000    -1.727000000
H    -4.941000000     2.125000000    -1.963000000
C    -6.421000000     4.759000000    -0.311000000
H    -7.093000000     4.974000000     0.516000000
C    -5.969000000     5.812000000    -1.168000000
H    -6.332000000     6.829000000    -1.046000000
C    -5.202000000     5.500000000    -2.329000000
H    -4.862000000     6.309000000    -2.969000000
C    -4.935000000     4.163000000    -2.638000000
O    -4.290000000     3.808000000    -3.805000000
C    -2.979000000     3.723000000    -3.915000000
C    -2.608000000     3.137000000    -5.103000000
H    -3.368000000     2.891000000    -5.840000000
C    -1.323000000     2.761000000    -5.295000000
O    -1.032000000     2.098000000    -6.462000000
C     0.152000000     1.391000000    -6.664000000
C     0.369000000     0.139000000    -6.100000000
H    -0.422000000    -0.259000000    -5.470000000
C     1.119000000     1.953000000    -7.516000000
H     1.003000000     2.939000000    -7.959000000
C     2.119000000     1.165000000    -8.014000000
H     2.851000000     1.504000000    -8.743000000
C     2.230000000    -0.145000000    -7.533000000
H     3.034000000    -0.786000000    -7.886000000
C     1.395000000    -0.684000000    -6.580000000
O     1.498000000    -1.945000000    -6.097000000
C     2.026000000    -2.472000000    -4.909000000
C     1.843000000    -3.808000000    -4.627000000
H     1.235000000    -4.496000000    -5.209000000
C     2.400000000    -4.319000000    -3.470000000
O     2.134000000    -5.621000000    -3.190000000
C     2.325000000    -6.119000000    -1.927000000
C     3.603000000    -6.608000000    -1.594000000
H     4.453000000    -6.322000000    -2.210000000
C     3.715000000    -7.346000000    -0.443000000
H     4.713000000    -7.660000000    -0.146000000
C     2.612000000    -7.623000000     0.396000000
H     2.779000000    -8.060000000     1.377000000
C     1.407000000    -7.026000000     0.135000000
C     1.271000000    -6.320000000    -1.052000000
H     0.344000000    -5.823000000    -1.324000000
C    -2.936000000    -0.466000000    -0.655000000
H    -3.907000000    -0.004000000    -0.819000000
C    -1.796000000     0.247000000    -0.317000000
H    -1.837000000     1.311000000    -0.096000000
C    -0.520000000    -0.374000000    -0.162000000
C     0.771000000     0.349000000     0.088000000
H     0.611000000     1.239000000     0.699000000
H     1.453000000    -0.316000000     0.623000000
H     1.214000000     0.708000000    -0.844000000
C    -0.425000000    -1.776000000    -0.286000000
H     0.571000000    -2.198000000    -0.189000000
C    -1.560000000    -2.542000000    -0.618000000
H    -1.506000000    -3.625000000    -0.692000000
C    -2.815000000    -1.898000000    -0.684000000
C    -3.993000000    -2.806000000    -1.034000000
O    -3.847000000    -3.978000000    -1.287000000
O    -5.152000000    -2.341000000    -0.927000000
O    -6.291000000    -6.095000000     3.898000000
H    -6.070000000    -5.732000000     3.040000000
H    -7.012000000    -5.549000000     4.211000000
O    -4.775000000    -5.507000000     0.522000000
H    -4.135000000    -5.272000000     1.195000000
H    -4.480000000    -5.043000000    -0.262000000
O    -9.074000000    -3.882000000    -1.568000000
H    -8.283000000    -3.904000000    -2.107000000
H    -9.158000000    -4.774000000    -1.229000000
O    -4.592000000    -8.001000000    -0.579000000
H    -5.330000000    -8.045000000    -1.187000000
H    -4.670000000    -7.139000000    -0.170000000
O    -8.775000000    -3.044000000     2.610000000
H    -8.295000000    -2.490000000     1.995000000
H    -8.623000000    -3.936000000     2.298000000
O    -6.458000000    -4.049000000    -2.495000000
H    -6.108000000    -3.431000000    -1.854000000
H    -5.888000000    -4.815000000    -2.426000000
O    -7.702000000    -2.260000000     0.082000000
H    -8.090000000    -2.737000000    -0.651000000
H    -6.758000000    -2.350000000    -0.046000000
O    -8.051000000     1.471000000    -2.609000000
H    -7.783000000     0.938000000    -1.860000000
H    -7.675000000     1.025000000    -3.367000000
O    -3.916000000    -0.455000000    -4.117000000
H    -3.046000000    -0.733000000    -3.829000000
H    -4.356000000    -0.175000000    -3.314000000
O    -5.766000000    -3.049000000    -5.219000000
H    -5.041000000    -2.474000000    -4.974000000
H    -6.003000000    -3.495000000    -4.406000000
O    -6.696000000    -7.277000000    -2.299000000
H    -7.493000000    -6.768000000    -2.446000000
H    -6.868000000    -8.118000000    -2.721000000
O    -1.862000000    -3.241000000    -5.563000000
H    -2.629000000    -3.526000000    -6.059000000
H    -1.401000000    -2.646000000    -6.154000000
O    -3.634000000    -5.756000000    -3.249000000
H    -3.526000000    -5.057000000    -2.604000000
H    -3.553000000    -6.564000000    -2.743000000
O    -7.532000000    -5.216000000     1.517000000
H    -6.627000000    -5.288000000     1.213000000
H    -7.997000000    -5.911000000     1.051000000
O    -1.299000000    -5.996000000    -4.492000000
H    -2.122000000    -5.956000000    -4.004000000
H    -1.210000000    -5.126000000    -4.882000000
O    -1.362000000    -0.948000000    -3.295000000
H    -1.062000000    -1.686000000    -3.826000000
H    -1.437000000    -1.306000000    -2.410000000
O    -6.575000000    -0.815000000    -2.782000000
H    -6.216000000    -1.443000000    -2.155000000
H    -7.038000000    -1.354000000    -3.423000000
O    -4.076000000    -4.177000000    -6.998000000
H    -4.541000000    -3.918000000    -6.203000000
H    -4.612000000    -3.831000000    -7.712000000
O    -4.381000000    -6.650000000    -5.715000000
H    -4.277000000    -6.337000000    -4.817000000
H    -4.072000000    -5.926000000    -6.259000000
