218
-1474.20377
C    -5.081000000     0.313000000     1.892000000
H    -5.047000000     1.247000000     1.337000000
C    -4.007000000    -0.043000000     2.722000000
C    -3.912000000    -1.340000000     3.280000000
H    -3.102000000    -1.719000000     3.899000000
C    -2.830000000     0.789000000     2.957000000
O    -3.258000000     2.189000000     3.045000000
H    -1.990000000     0.675000000     2.256000000
O    -2.224000000     0.534000000     4.252000000
C    -0.896000000     0.500000000     4.344000000
C    -0.183000000    -0.688000000     4.305000000
H    -0.684000000    -1.650000000     4.238000000
C     1.221000000    -0.681000000     4.221000000
O     1.847000000    -1.897000000     3.926000000
C     1.943000000     0.479000000     4.404000000
C     3.461000000     0.525000000     4.228000000
H     3.915000000     1.386000000     4.723000000
C     3.980000000     0.625000000     2.807000000
C     4.285000000     1.842000000     2.223000000
H     4.154000000     2.728000000     2.839000000
H     3.945000000    -0.343000000     4.680000000
C     1.226000000     1.685000000     4.478000000
H     1.828000000     2.572000000     4.660000000
C    -0.185000000     1.694000000     4.470000000
C    -0.901000000     2.979000000     4.577000000
H    -0.366000000     3.775000000     5.099000000
H    -1.837000000     2.869000000     5.128000000
C    -1.247000000     3.582000000     3.178000000
C    -0.405000000     4.522000000     2.538000000
H     0.512000000     4.815000000     3.043000000
C    -2.402000000     3.158000000     2.470000000
C    -2.736000000     3.624000000     1.229000000
H    -3.585000000     3.295000000     0.636000000
C    -1.838000000     4.509000000     0.654000000
O    -2.057000000     4.677000000    -0.657000000
C    -1.398000000     3.679000000    -1.487000000
C    -2.315000000     2.851000000    -2.312000000
C    -1.754000000     1.938000000    -3.262000000
H    -0.684000000     1.747000000    -3.306000000
C    -3.706000000     2.955000000    -2.219000000
H    -4.146000000     3.674000000    -1.533000000
O    -0.311000000     4.280000000    -2.175000000
H    -0.954000000     2.943000000    -0.801000000
C    -0.677000000     4.917000000     1.279000000
C     0.357000000     5.568000000     0.465000000
H     0.914000000     6.221000000     1.140000000
H    -0.132000000     6.181000000    -0.294000000
C     1.336000000     4.694000000    -0.285000000
C     2.627000000     4.410000000     0.209000000
H     2.919000000     4.787000000     1.185000000
C     0.973000000     4.100000000    -1.564000000
C     1.895000000     3.395000000    -2.296000000
H     1.623000000     3.007000000    -3.274000000
C     3.157000000     3.158000000    -1.750000000
O     3.981000000     2.300000000    -2.434000000
C     4.051000000     0.901000000    -1.951000000
C     4.024000000    -0.113000000    -3.093000000
C     3.200000000     0.130000000    -4.241000000
H     2.741000000     1.108000000    -4.356000000
C     4.605000000    -1.334000000    -3.008000000
H     5.270000000    -1.527000000    -2.170000000
O     5.203000000     0.699000000    -1.096000000
H     3.116000000     0.801000000    -1.381000000
C     3.509000000     3.617000000    -0.542000000
C     4.868000000     3.289000000     0.125000000
H     5.190000000     4.055000000     0.833000000
H     5.633000000     3.295000000    -0.655000000
C     4.695000000     1.919000000     0.926000000
C     4.843000000     0.730000000     0.206000000
C     4.577000000    -0.491000000     0.786000000
H     4.655000000    -1.429000000     0.243000000
C     4.143000000    -0.565000000     2.091000000
O     3.794000000    -1.807000000     2.572000000
C     2.331000000    -2.063000000     2.590000000
H     1.844000000    -1.276000000     1.996000000
C     1.961000000    -3.383000000     1.955000000
C     0.666000000    -3.778000000     2.044000000
H     0.001000000    -3.201000000     2.683000000
C     2.895000000    -4.115000000     1.155000000
H     3.930000000    -3.786000000     1.123000000
C     2.382000000    -5.269000000     0.501000000
O     3.162000000    -6.069000000    -0.373000000
C     1.080000000    -5.623000000     0.676000000
H     0.676000000    -6.512000000     0.199000000
C     0.218000000    -4.918000000     1.423000000
O    -1.141000000    -5.298000000     1.418000000
C    -1.930000000    -5.325000000     2.543000000
C    -3.103000000    -4.601000000     2.482000000
H    -3.340000000    -4.198000000     1.501000000
C    -1.494000000    -5.936000000     3.708000000
H    -0.566000000    -6.498000000     3.767000000
C    -2.256000000    -5.824000000     4.845000000
H    -1.945000000    -6.161000000     5.831000000
C    -3.330000000    -4.938000000     4.815000000
H    -3.950000000    -4.711000000     5.679000000
C    -3.769000000    -4.284000000     3.637000000
O    -4.913000000    -3.506000000     3.514000000
C    -4.921000000    -2.267000000     2.941000000
C    -6.017000000    -1.809000000     2.194000000
H    -6.738000000    -2.618000000     2.104000000
C    -6.136000000    -0.574000000     1.676000000
O    -7.141000000    -0.283000000     0.812000000
C    -7.148000000     0.954000000     0.199000000
C    -6.390000000     1.082000000    -0.907000000
H    -5.776000000     0.275000000    -1.298000000
C    -8.113000000     1.901000000     0.588000000
H    -8.799000000     1.685000000     1.402000000
C    -8.161000000     3.084000000    -0.208000000
H    -8.919000000     3.841000000    -0.023000000
C    -7.442000000     3.188000000    -1.356000000
H    -7.698000000     4.053000000    -1.962000000
C    -6.518000000     2.249000000    -1.704000000
O    -5.931000000     2.407000000    -2.906000000
C    -4.570000000     2.262000000    -3.063000000
C    -4.015000000     1.446000000    -4.017000000
H    -4.604000000     0.884000000    -4.737000000
C    -2.627000000     1.259000000    -4.121000000
O    -2.195000000     0.318000000    -5.051000000
C    -1.080000000     0.674000000    -5.766000000
C     0.091000000    -0.052000000    -5.491000000
H     0.043000000    -0.811000000    -4.714000000
C    -1.136000000     1.595000000    -6.795000000
H    -2.088000000     2.106000000    -6.912000000
C    -0.130000000     1.733000000    -7.703000000
H    -0.172000000     2.397000000    -8.563000000
C     1.039000000     0.913000000    -7.499000000
H     1.871000000     1.047000000    -8.186000000
C     1.160000000     0.102000000    -6.361000000
O     2.250000000    -0.653000000    -6.256000000
C     2.857000000    -0.932000000    -5.084000000
C     3.521000000    -2.134000000    -4.970000000
H     3.434000000    -2.869000000    -5.767000000
C     4.319000000    -2.352000000    -3.915000000
O     5.048000000    -3.547000000    -3.923000000
C     5.219000000    -4.214000000    -2.747000000
C     6.503000000    -4.617000000    -2.402000000
H     7.343000000    -4.219000000    -2.966000000
C     6.655000000    -5.617000000    -1.507000000
H     7.628000000    -6.082000000    -1.370000000
C     5.562000000    -6.122000000    -0.767000000
H     5.684000000    -6.867000000     0.015000000
C     4.290000000    -5.630000000    -0.987000000
C     4.114000000    -4.744000000    -2.039000000
H     3.093000000    -4.454000000    -2.275000000
C    -1.894000000    -0.841000000    -1.300000000
H    -2.967000000    -0.746000000    -1.444000000
C    -1.224000000     0.079000000    -0.494000000
H    -1.767000000     0.849000000     0.048000000
C     0.163000000    -0.009000000    -0.374000000
C     0.818000000     0.892000000     0.685000000
H     0.355000000     0.819000000     1.671000000
H     1.901000000     0.854000000     0.822000000
H     0.645000000     1.910000000     0.331000000
C     0.845000000    -0.926000000    -1.120000000
H     1.919000000    -0.994000000    -0.966000000
C     0.183000000    -1.846000000    -1.908000000
H     0.770000000    -2.654000000    -2.338000000
C    -1.187000000    -1.763000000    -2.088000000
C    -1.829000000    -2.618000000    -3.136000000
O    -1.085000000    -2.983000000    -4.025000000
O    -3.051000000    -2.847000000    -3.102000000
O    -3.150000000    -5.227000000    -3.985000000
H    -3.148000000    -4.300000000    -3.746000000
H    -2.335000000    -5.350000000    -4.472000000
O     2.313000000    -6.392000000    -5.394000000
H     1.759000000    -6.017000000    -4.709000000
H     1.830000000    -7.160000000    -5.698000000
O    -5.095000000    -4.784000000    -1.308000000
H    -4.257000000    -4.350000000    -1.465000000
H    -5.359000000    -5.113000000    -2.167000000
O    -4.185000000     0.435000000    -8.087000000
H    -4.653000000    -0.301000000    -7.692000000
H    -3.260000000     0.200000000    -8.010000000
O    -4.189000000    -3.774000000    -9.028000000
H    -3.575000000    -3.228000000    -9.519000000
H    -4.010000000    -3.570000000    -8.110000000
O    -7.493000000    -4.066000000    -0.024000000
H    -8.149000000    -3.938000000    -0.708000000
H    -6.669000000    -4.176000000    -0.499000000
O     1.897000000    -4.318000000    -8.148000000
H     1.297000000    -4.179000000    -7.414000000
H     2.600000000    -4.855000000    -7.783000000
O    -0.948000000    -6.154000000    -6.212000000
H    -0.663000000    -6.743000000    -5.514000000
H    -1.401000000    -6.722000000    -6.835000000
O    -7.565000000    -3.789000000    -4.313000000
H    -7.108000000    -3.180000000    -3.734000000
H    -6.866000000    -4.261000000    -4.765000000
O    -5.795000000    -5.998000000    -4.551000000
H    -4.907000000    -5.706000000    -4.345000000
H    -5.875000000    -6.846000000    -4.115000000
O    -2.376000000    -7.987000000    -4.022000000
H    -2.310000000    -8.187000000    -3.088000000
H    -2.947000000    -7.220000000    -4.062000000
O     0.337000000    -5.460000000    -3.532000000
H    -0.222000000    -5.733000000    -2.805000000
H    -0.082000000    -4.670000000    -3.873000000
O    -3.330000000    -2.687000000    -6.198000000
H    -2.859000000    -2.695000000    -5.365000000
H    -3.053000000    -1.874000000    -6.621000000
O    -2.170000000    -8.139000000    -1.232000000
H    -2.641000000    -7.672000000    -0.542000000
H    -2.726000000    -8.891000000    -1.435000000
O    -5.943000000    -1.767000000    -6.658000000
H    -6.421000000    -1.402000000    -5.913000000
H    -5.227000000    -2.264000000    -6.262000000
O    -5.070000000    -6.400000000    -7.497000000
H    -4.141000000    -6.184000000    -7.416000000
H    -5.335000000    -6.654000000    -6.613000000
O    -5.553000000    -2.116000000    -3.756000000
H    -4.706000000    -2.451000000    -3.460000000
H    -5.944000000    -1.727000000    -2.974000000
O    -1.887000000    -1.258000000    -8.309000000
H    -2.162000000    -1.410000000    -9.213000000
H    -1.464000000    -2.075000000    -8.046000000
O     0.055000000    -3.448000000    -6.349000000
H    -0.263000000    -4.351000000    -6.373000000
H    -0.355000000    -3.071000000    -5.571000000
