218
-1471.58514
C    -1.536000000    -2.595000000    -4.358000000
H    -1.891000000    -1.747000000    -4.939000000
C    -2.047000000    -2.818000000    -3.070000000
C    -1.623000000    -3.908000000    -2.352000000
H    -1.986000000    -3.978000000    -1.329000000
C    -3.046000000    -1.804000000    -2.446000000
O    -3.696000000    -1.090000000    -3.406000000
H    -2.461000000    -1.177000000    -1.757000000
O    -3.993000000    -2.479000000    -1.595000000
C    -4.302000000    -1.836000000    -0.376000000
C    -3.857000000    -2.473000000     0.773000000
H    -3.321000000    -3.414000000     0.681000000
C    -3.885000000    -1.831000000     1.949000000
O    -3.121000000    -2.407000000     2.988000000
C    -4.378000000    -0.542000000     1.996000000
C    -4.339000000     0.252000000     3.244000000
H    -5.259000000     0.839000000     3.275000000
C    -3.208000000     1.174000000     3.476000000
C    -3.246000000     2.529000000     3.128000000
H    -4.064000000     2.991000000     2.581000000
H    -4.457000000    -0.450000000     4.072000000
C    -4.930000000     0.096000000     0.894000000
H    -5.262000000     1.131000000     0.914000000
C    -4.888000000    -0.571000000    -0.339000000
C    -5.465000000     0.085000000    -1.614000000
H    -6.310000000     0.737000000    -1.387000000
H    -5.815000000    -0.661000000    -2.331000000
C    -4.478000000     0.924000000    -2.316000000
C    -4.172000000     2.264000000    -1.937000000
H    -4.755000000     2.737000000    -1.151000000
C    -3.625000000     0.278000000    -3.244000000
C    -2.496000000     0.962000000    -3.786000000
H    -1.822000000     0.469000000    -4.481000000
C    -2.273000000     2.302000000    -3.447000000
O    -1.187000000     2.878000000    -3.949000000
C     0.011000000     2.968000000    -3.104000000
C     1.256000000     2.742000000    -3.954000000
C     2.480000000     3.264000000    -3.577000000
H     2.577000000     3.831000000    -2.654000000
C     1.272000000     1.913000000    -5.074000000
H     0.324000000     1.463000000    -5.356000000
O     0.132000000     4.280000000    -2.478000000
H    -0.121000000     2.197000000    -2.330000000
C    -3.097000000     2.930000000    -2.515000000
C    -2.881000000     4.343000000    -2.090000000
H    -3.814000000     4.818000000    -1.778000000
H    -2.651000000     4.952000000    -2.966000000
C    -1.808000000     4.443000000    -1.008000000
C    -2.318000000     4.575000000     0.307000000
H    -3.387000000     4.694000000     0.462000000
C    -0.400000000     4.460000000    -1.231000000
C     0.479000000     4.611000000    -0.169000000
H     1.547000000     4.547000000    -0.362000000
C    -0.036000000     4.597000000     1.149000000
O     0.963000000     4.416000000     2.074000000
C     0.917000000     3.165000000     2.741000000
C     2.307000000     2.473000000     2.922000000
C     2.925000000     2.108000000     1.691000000
H     2.599000000     2.472000000     0.720000000
C     2.782000000     2.065000000     4.163000000
H     2.338000000     2.310000000     5.124000000
O     0.237000000     3.332000000     3.964000000
H     0.382000000     2.370000000     2.201000000
C    -1.444000000     4.642000000     1.377000000
C    -2.007000000     4.704000000     2.824000000
H    -3.005000000     5.137000000     2.921000000
H    -1.358000000     5.341000000     3.428000000
C    -2.119000000     3.297000000     3.399000000
C    -1.014000000     2.749000000     4.042000000
C    -1.110000000     1.545000000     4.580000000
H    -0.273000000     1.168000000     5.162000000
C    -2.117000000     0.689000000     4.241000000
O    -2.046000000    -0.678000000     4.515000000
C    -1.907000000    -1.675000000     3.428000000
H    -1.605000000    -1.192000000     2.487000000
C    -0.865000000    -2.745000000     3.752000000
C    -0.593000000    -3.879000000     2.967000000
H    -1.142000000    -4.045000000     2.043000000
C    -0.081000000    -2.617000000     4.982000000
H    -0.238000000    -1.830000000     5.716000000
C     0.981000000    -3.448000000     5.275000000
O     1.767000000    -3.240000000     6.445000000
C     1.167000000    -4.578000000     4.501000000
H     1.890000000    -5.281000000     4.909000000
C     0.385000000    -4.734000000     3.346000000
O     0.903000000    -5.812000000     2.567000000
C     0.265000000    -6.270000000     1.402000000
C     0.282000000    -5.576000000     0.165000000
H     0.960000000    -4.737000000     0.033000000
C    -0.457000000    -7.418000000     1.624000000
H    -0.594000000    -7.804000000     2.631000000
C    -1.035000000    -8.078000000     0.528000000
H    -1.626000000    -8.963000000     0.748000000
C    -0.992000000    -7.407000000    -0.686000000
H    -1.405000000    -7.853000000    -1.588000000
C    -0.394000000    -6.163000000    -0.861000000
O    -0.171000000    -5.759000000    -2.157000000
C    -0.639000000    -4.723000000    -2.894000000
C    -0.159000000    -4.524000000    -4.164000000
H     0.612000000    -5.189000000    -4.544000000
C    -0.516000000    -3.375000000    -4.847000000
O     0.041000000    -3.144000000    -6.111000000
C     0.281000000    -2.052000000    -6.781000000
C     1.174000000    -1.104000000    -6.350000000
H     1.663000000    -1.210000000    -5.385000000
C    -0.493000000    -1.793000000    -7.926000000
H    -1.220000000    -2.486000000    -8.343000000
C    -0.127000000    -0.758000000    -8.835000000
H    -0.529000000    -0.717000000    -9.844000000
C     0.830000000     0.185000000    -8.397000000
H     1.020000000     1.036000000    -9.046000000
C     1.472000000    -0.024000000    -7.209000000
O     2.453000000     0.823000000    -6.954000000
C     2.450000000     1.611000000    -5.802000000
C     3.688000000     2.188000000    -5.379000000
H     4.649000000     1.903000000    -5.802000000
C     3.717000000     2.894000000    -4.177000000
O     4.963000000     3.312000000    -3.747000000
C     5.427000000     2.965000000    -2.456000000
C     4.860000000     1.955000000    -1.696000000
H     3.980000000     1.392000000    -1.997000000
C     6.556000000     3.677000000    -2.067000000
H     7.022000000     4.449000000    -2.673000000
C     6.968000000     3.522000000    -0.798000000
H     7.717000000     4.203000000    -0.403000000
C     6.340000000     2.628000000     0.102000000
H     6.577000000     2.520000000     1.157000000
C     5.336000000     1.805000000    -0.347000000
O     4.744000000     0.921000000     0.474000000
C     4.067000000     1.291000000     1.661000000
C     4.510000000     0.838000000     2.944000000
H     5.350000000     0.149000000     2.953000000
C     3.874000000     1.291000000     4.135000000
O     4.397000000     0.820000000     5.349000000
C     3.694000000    -0.017000000     6.273000000
C     3.616000000     0.338000000     7.634000000
H     4.096000000     1.261000000     7.949000000
C     2.925000000    -0.514000000     8.543000000
H     2.933000000    -0.091000000     9.544000000
C     2.343000000    -1.719000000     8.119000000
H     1.785000000    -2.405000000     8.751000000
C     2.437000000    -2.055000000     6.799000000
C     3.145000000    -1.284000000     5.850000000
H     3.110000000    -1.532000000     4.792000000
C     1.391000000    -1.202000000    -1.352000000
H     1.611000000    -1.427000000    -2.393000000
C     0.329000000    -0.400000000    -1.049000000
H    -0.339000000    -0.006000000    -1.811000000
C     0.102000000     0.004000000     0.279000000
C    -1.110000000     0.869000000     0.579000000
H    -0.902000000     1.881000000     0.225000000
H    -1.947000000     0.382000000     0.074000000
H    -1.326000000     0.844000000     1.649000000
C     0.868000000    -0.597000000     1.316000000
H     0.542000000    -0.409000000     2.336000000
C     2.009000000    -1.340000000     0.985000000
H     2.689000000    -1.735000000     1.736000000
C     2.267000000    -1.656000000    -0.356000000
C     3.373000000    -2.555000000    -0.764000000
O     4.112000000    -3.035000000     0.074000000
O     3.689000000    -2.743000000    -1.913000000
O     7.949000000     0.573000000    -3.162000000
H     8.452000000     0.854000000    -2.398000000
H     7.167000000     0.159000000    -2.795000000
O     5.507000000    -4.857000000    -4.731000000
H     6.047000000    -4.378000000    -5.360000000
H     5.983000000    -4.785000000    -3.904000000
O     8.531000000    -2.831000000    -2.262000000
H     8.657000000    -2.538000000    -3.164000000
H     7.665000000    -3.238000000    -2.261000000
O     5.448000000    -6.373000000     3.949000000
H     5.706000000    -6.965000000     3.242000000
H     5.382000000    -5.515000000     3.531000000
O     1.941000000    -7.435000000    -3.993000000
H     1.689000000    -7.915000000    -3.204000000
H     2.099000000    -6.541000000    -3.689000000
O     5.240000000    -2.564000000    -6.687000000
H     5.103000000    -1.899000000    -7.362000000
H     4.937000000    -2.150000000    -5.879000000
O     3.058000000    -7.914000000     0.725000000
H     3.627000000    -7.208000000     0.421000000
H     2.173000000    -7.557000000     0.652000000
O     6.317000000    -1.516000000     0.734000000
H     5.837000000    -0.702000000     0.885000000
H     5.635000000    -2.171000000     0.585000000
O     6.701000000    -6.322000000    -0.115000000
H     6.278000000    -7.180000000    -0.078000000
H     7.459000000    -6.404000000     0.463000000
O     6.202000000    -3.997000000    -2.207000000
H     6.451000000    -4.517000000    -1.443000000
H     5.360000000    -3.610000000    -1.969000000
O     6.058000000    -1.019000000    -2.049000000
H     5.260000000    -0.841000000    -1.552000000
H     6.642000000    -1.444000000    -1.421000000
O     7.990000000    -1.949000000     2.716000000
H     7.283000000    -1.970000000     3.360000000
H     7.561000000    -2.145000000     1.883000000
O     4.171000000    -1.416000000    -4.072000000
H     5.034000000    -1.137000000    -3.766000000
H     3.763000000    -1.819000000    -3.305000000
O     3.852000000    -5.664000000    -0.692000000
H     3.892000000    -4.737000000    -0.459000000
H     3.387000000    -5.681000000    -1.528000000
O     2.852000000    -4.559000000    -6.870000000
H     2.555000000    -4.645000000    -5.964000000
H     3.571000000    -3.929000000    -6.827000000
O     2.922000000    -4.979000000    -3.538000000
H     3.765000000    -5.069000000    -3.982000000
H     2.990000000    -4.152000000    -3.061000000
O     5.644000000    -7.817000000    -3.136000000
H     5.762000000    -7.453000000    -2.259000000
H     5.137000000    -8.617000000    -2.998000000
O     5.975000000    -2.156000000     4.794000000
H     5.447000000    -2.570000000     4.111000000
H     6.353000000    -2.887000000     5.281000000
O     4.621000000    -3.689000000     2.856000000
H     3.801000000    -4.105000000     3.125000000
H     4.436000000    -3.336000000     1.986000000
