218
-1448.76006
C    -4.883000000     2.590000000     0.468000000
H    -4.609000000     3.370000000    -0.238000000
C    -4.073000000     2.198000000     1.484000000
C    -4.532000000     1.224000000     2.411000000
H    -3.860000000     0.854000000     3.182000000
C    -2.671000000     2.940000000     1.618000000
O    -2.687000000     4.264000000     1.117000000
H    -1.865000000     2.395000000     1.105000000
O    -2.326000000     2.837000000     3.029000000
C    -1.035000000     2.661000000     3.494000000
C    -0.711000000     1.399000000     4.063000000
H    -1.513000000     0.692000000     4.262000000
C     0.581000000     1.184000000     4.516000000
O     0.772000000    -0.021000000     5.045000000
C     1.642000000     2.041000000     4.227000000
C     3.048000000     1.653000000     4.598000000
H     3.615000000     2.570000000     4.772000000
C     3.644000000     0.838000000     3.450000000
C     4.388000000     1.407000000     2.437000000
H     4.432000000     2.493000000     2.422000000
H     2.969000000     1.079000000     5.523000000
C     1.374000000     3.272000000     3.507000000
H     2.248000000     3.884000000     3.299000000
C     0.021000000     3.555000000     3.231000000
C    -0.268000000     4.868000000     2.526000000
H     0.554000000     5.516000000     2.835000000
H    -1.173000000     5.316000000     2.943000000
C    -0.364000000     4.884000000     0.995000000
C     0.815000000     5.022000000     0.237000000
H     1.737000000     5.165000000     0.796000000
C    -1.609000000     4.628000000     0.318000000
C    -1.560000000     4.252000000    -1.006000000
H    -2.472000000     3.917000000    -1.493000000
C    -0.415000000     4.403000000    -1.744000000
O    -0.452000000     3.815000000    -2.995000000
C     0.236000000     2.563000000    -3.180000000
C    -0.694000000     1.537000000    -4.007000000
C    -0.137000000     0.634000000    -4.946000000
H     0.907000000     0.565000000    -5.240000000
C    -2.126000000     1.472000000    -3.797000000
H    -2.614000000     2.079000000    -3.039000000
O     1.499000000     2.696000000    -3.791000000
H     0.361000000     2.070000000    -2.205000000
C     0.770000000     4.803000000    -1.147000000
C     2.145000000     4.834000000    -1.901000000
H     2.741000000     5.635000000    -1.457000000
H     2.052000000     5.108000000    -2.954000000
C     2.930000000     3.554000000    -2.029000000
C     3.768000000     3.252000000    -0.973000000
H     3.884000000     3.947000000    -0.145000000
C     2.608000000     2.577000000    -3.012000000
C     3.112000000     1.245000000    -2.882000000
H     2.811000000     0.473000000    -3.584000000
C     4.056000000     0.997000000    -1.897000000
O     4.707000000    -0.186000000    -1.871000000
C     3.989000000    -1.187000000    -1.102000000
C     3.810000000    -2.555000000    -1.787000000
C     3.747000000    -2.518000000    -3.218000000
H     3.857000000    -1.616000000    -3.814000000
C     3.518000000    -3.755000000    -1.088000000
H     3.368000000    -3.694000000    -0.013000000
O     4.746000000    -1.411000000     0.075000000
H     3.020000000    -0.814000000    -0.739000000
C     4.353000000     1.935000000    -0.870000000
C     5.364000000     1.549000000     0.237000000
H     5.858000000     2.439000000     0.632000000
H     6.101000000     0.920000000    -0.267000000
C     4.730000000     0.673000000     1.279000000
C     4.497000000    -0.716000000     1.217000000
C     3.828000000    -1.308000000     2.271000000
H     3.471000000    -2.331000000     2.189000000
C     3.344000000    -0.572000000     3.353000000
O     2.480000000    -1.341000000     4.091000000
C     1.079000000    -1.068000000     4.032000000
H     1.021000000    -0.462000000     3.117000000
C     0.217000000    -2.365000000     4.104000000
C    -0.914000000    -2.424000000     4.987000000
H    -1.242000000    -1.671000000     5.699000000
C     0.599000000    -3.497000000     3.331000000
H     1.417000000    -3.362000000     2.628000000
C    -0.254000000    -4.588000000     3.152000000
O     0.014000000    -5.648000000     2.243000000
C    -1.465000000    -4.508000000     3.898000000
H    -2.291000000    -5.207000000     3.804000000
C    -1.777000000    -3.494000000     4.778000000
O    -3.032000000    -3.424000000     5.263000000
C    -3.816000000    -2.331000000     5.375000000
C    -4.564000000    -1.888000000     4.235000000
H    -4.482000000    -2.403000000     3.281000000
C    -4.058000000    -1.666000000     6.571000000
H    -3.606000000    -1.933000000     7.523000000
C    -4.840000000    -0.441000000     6.586000000
H    -4.916000000     0.182000000     7.474000000
C    -5.436000000    -0.035000000     5.423000000
H    -6.062000000     0.854000000     5.415000000
C    -5.435000000    -0.763000000     4.249000000
O    -6.210000000    -0.348000000     3.180000000
C    -5.789000000     0.697000000     2.336000000
C    -6.671000000     1.221000000     1.319000000
H    -7.722000000     0.966000000     1.209000000
C    -6.168000000     2.179000000     0.410000000
O    -6.983000000     2.294000000    -0.718000000
C    -6.537000000     2.269000000    -2.028000000
C    -5.582000000     1.360000000    -2.419000000
H    -5.230000000     0.642000000    -1.682000000
C    -6.859000000     3.375000000    -2.846000000
H    -7.395000000     4.210000000    -2.401000000
C    -6.334000000     3.405000000    -4.149000000
H    -6.777000000     4.155000000    -4.800000000
C    -5.511000000     2.431000000    -4.608000000
H    -5.136000000     2.465000000    -5.627000000
C    -5.102000000     1.430000000    -3.749000000
O    -4.255000000     0.366000000    -4.207000000
C    -2.910000000     0.496000000    -4.481000000
C    -2.268000000    -0.321000000    -5.410000000
H    -2.797000000    -1.148000000    -5.876000000
C    -0.908000000    -0.290000000    -5.649000000
O    -0.382000000    -1.192000000    -6.535000000
C     0.942000000    -1.670000000    -6.624000000
C     1.500000000    -2.530000000    -5.689000000
H     0.912000000    -2.910000000    -4.857000000
C     1.566000000    -1.383000000    -7.873000000
H     1.012000000    -1.020000000    -8.735000000
C     2.922000000    -1.746000000    -8.059000000
H     3.436000000    -1.483000000    -8.979000000
C     3.549000000    -2.483000000    -7.076000000
H     4.566000000    -2.833000000    -7.236000000
C     2.851000000    -2.937000000    -6.011000000
O     3.547000000    -3.874000000    -5.250000000
C     3.563000000    -3.756000000    -3.879000000
C     3.499000000    -4.978000000    -3.140000000
H     3.430000000    -5.944000000    -3.634000000
C     3.428000000    -4.918000000    -1.801000000
O     3.310000000    -6.105000000    -1.145000000
C     2.936000000    -6.211000000     0.161000000
C     3.844000000    -6.822000000     1.068000000
H     4.763000000    -7.286000000     0.719000000
C     3.528000000    -6.865000000     2.445000000
H     4.305000000    -7.068000000     3.177000000
C     2.236000000    -6.474000000     2.871000000
H     2.014000000    -6.363000000     3.930000000
C     1.267000000    -6.077000000     1.912000000
C     1.656000000    -5.965000000     0.574000000
H     0.945000000    -5.552000000    -0.136000000
C     0.004000000    -1.900000000    -1.720000000
H     0.302000000    -2.236000000    -2.710000000
C     0.487000000    -0.724000000    -1.144000000
H     1.088000000    -0.075000000    -1.776000000
C     0.023000000    -0.353000000     0.033000000
C     0.437000000     1.024000000     0.442000000
H     1.491000000     1.256000000     0.274000000
H    -0.028000000     1.768000000    -0.209000000
H     0.048000000     1.368000000     1.403000000
C    -0.703000000    -1.274000000     0.803000000
H    -0.910000000    -0.916000000     1.808000000
C    -1.092000000    -2.498000000     0.328000000
H    -1.649000000    -3.224000000     0.916000000
C    -0.704000000    -2.833000000    -0.956000000
C    -1.103000000    -4.162000000    -1.530000000
O    -1.745000000    -4.960000000    -0.897000000
O    -0.795000000    -4.418000000    -2.683000000
O     0.393000000    -4.730000000    -7.744000000
H     0.136000000    -4.841000000    -6.829000000
H    -0.353000000    -4.290000000    -8.152000000
O    -5.373000000    -4.297000000    -3.792000000
H    -5.088000000    -4.791000000    -3.023000000
H    -6.276000000    -4.579000000    -3.937000000
O    -2.110000000    -3.476000000    -5.211000000
H    -1.519000000    -3.664000000    -4.482000000
H    -2.948000000    -3.274000000    -4.794000000
O    -3.159000000    -6.183000000    -2.715000000
H    -2.807000000    -5.667000000    -3.441000000
H    -2.688000000    -5.865000000    -1.945000000
O    -1.921000000   -10.147000000    -0.566000000
H    -1.123000000   -10.362000000    -0.083000000
H    -1.726000000    -9.311000000    -0.990000000
O    -0.634000000    -8.292000000     3.216000000
H    -0.643000000    -7.543000000     2.620000000
H    -1.515000000    -8.660000000     3.152000000
O     1.972000000    -7.816000000    -3.180000000
H     2.719000000    -7.602000000    -2.622000000
H     1.632000000    -8.636000000    -2.822000000
O    -3.943000000    -2.156000000    -3.151000000
H    -4.489000000    -2.912000000    -3.368000000
H    -4.244000000    -1.466000000    -3.742000000
O    -3.260000000    -7.483000000     1.939000000
H    -3.120000000    -6.622000000     1.544000000
H    -3.618000000    -8.017000000     1.230000000
O    -4.333000000    -8.800000000    -0.143000000
H    -3.571000000    -9.350000000    -0.325000000
H    -4.575000000    -8.436000000    -0.995000000
O    -5.884000000    -4.508000000     2.416000000
H    -5.748000000    -5.103000000     3.153000000
H    -5.309000000    -4.845000000     1.728000000
O    -2.157000000    -6.751000000    -6.401000000
H    -2.649000000    -7.452000000    -5.973000000
H    -1.557000000    -6.433000000    -5.726000000
O    -3.836000000    -5.046000000     0.348000000
H    -2.933000000    -5.005000000     0.033000000
H    -4.244000000    -4.248000000     0.011000000
O    -0.683000000    -7.453000000    -1.585000000
H    -0.780000000    -6.518000000    -1.400000000
H     0.128000000    -7.514000000    -2.089000000
O    -2.950000000     0.014000000    -0.896000000
H    -2.781000000    -0.537000000    -1.660000000
H    -2.183000000    -0.111000000    -0.336000000
O    -1.842000000    -8.684000000    -3.921000000
H    -2.748000000    -8.727000000    -4.227000000
H    -1.884000000    -8.162000000    -3.120000000
O    -0.214000000    -5.626000000    -4.848000000
H    -0.522000000    -5.177000000    -4.060000000
H     0.471000000    -6.216000000    -4.534000000
O    -5.633000000    -7.319000000    -2.599000000
H    -6.042000000    -6.904000000    -1.840000000
H    -4.720000000    -7.032000000    -2.566000000
O    -4.751000000    -2.218000000    -0.507000000
H    -4.282000000    -1.400000000    -0.345000000
H    -4.492000000    -2.471000000    -1.393000000
