218
-1450.48645
C    -1.694000000    -2.661000000    -4.307000000
H    -2.325000000    -2.017000000    -4.914000000
C    -1.958000000    -2.753000000    -2.947000000
C    -1.305000000    -3.750000000    -2.162000000
H    -1.421000000    -3.866000000    -1.088000000
C    -2.897000000    -1.811000000    -2.255000000
O    -3.751000000    -1.025000000    -3.184000000
H    -2.268000000    -1.054000000    -1.764000000
O    -3.686000000    -2.412000000    -1.188000000
C    -3.787000000    -1.724000000     0.005000000
C    -3.207000000    -2.345000000     1.111000000
H    -2.503000000    -3.170000000     1.039000000
C    -3.289000000    -1.612000000     2.309000000
O    -2.542000000    -2.151000000     3.360000000
C    -4.034000000    -0.442000000     2.475000000
C    -4.080000000     0.357000000     3.747000000
H    -5.004000000     0.935000000     3.819000000
C    -2.862000000     1.314000000     3.969000000
C    -2.876000000     2.589000000     3.422000000
H    -3.701000000     3.051000000     2.886000000
H    -4.024000000    -0.406000000     4.526000000
C    -4.668000000     0.088000000     1.355000000
H    -5.340000000     0.939000000     1.426000000
C    -4.596000000    -0.582000000     0.143000000
C    -5.296000000    -0.005000000    -1.064000000
H    -6.150000000     0.551000000    -0.671000000
H    -5.828000000    -0.777000000    -1.625000000
C    -4.430000000     0.895000000    -1.913000000
C    -4.297000000     2.291000000    -1.661000000
H    -4.809000000     2.816000000    -0.858000000
C    -3.793000000     0.331000000    -2.977000000
C    -2.938000000     1.045000000    -3.772000000
H    -2.238000000     0.531000000    -4.425000000
C    -2.712000000     2.343000000    -3.458000000
O    -1.626000000     2.931000000    -4.061000000
C    -0.361000000     2.871000000    -3.374000000
C     0.746000000     2.372000000    -4.274000000
C     2.090000000     2.532000000    -3.870000000
H     2.395000000     3.153000000    -3.032000000
C     0.500000000     1.739000000    -5.508000000
H    -0.525000000     1.583000000    -5.835000000
O    -0.139000000     4.116000000    -2.720000000
H    -0.331000000     2.010000000    -2.691000000
C    -3.366000000     2.971000000    -2.404000000
C    -3.046000000     4.431000000    -2.132000000
H    -3.909000000     4.862000000    -1.620000000
H    -2.877000000     5.017000000    -3.038000000
C    -1.989000000     4.399000000    -1.059000000
C    -2.210000000     4.525000000     0.277000000
H    -3.218000000     4.594000000     0.679000000
C    -0.587000000     4.323000000    -1.445000000
C     0.386000000     4.373000000    -0.405000000
H     1.417000000     4.231000000    -0.720000000
C     0.076000000     4.393000000     0.908000000
O     1.192000000     4.275000000     1.779000000
C     1.175000000     3.127000000     2.632000000
C     2.571000000     2.501000000     2.734000000
C     3.113000000     1.942000000     1.583000000
H     2.800000000     2.348000000     0.624000000
C     3.128000000     2.159000000     3.973000000
H     2.735000000     2.482000000     4.933000000
O     0.628000000     3.456000000     3.918000000
H     0.554000000     2.397000000     2.092000000
C    -1.221000000     4.583000000     1.296000000
C    -1.609000000     4.773000000     2.842000000
H    -2.603000000     5.222000000     2.907000000
H    -0.993000000     5.464000000     3.421000000
C    -1.728000000     3.407000000     3.616000000
C    -0.570000000     2.875000000     4.074000000
C    -0.565000000     1.524000000     4.522000000
H     0.339000000     0.999000000     4.817000000
C    -1.710000000     0.743000000     4.519000000
O    -1.682000000    -0.572000000     4.814000000
C    -1.361000000    -1.543000000     3.744000000
H    -0.954000000    -0.989000000     2.885000000
C    -0.373000000    -2.589000000     4.158000000
C     0.002000000    -3.435000000     3.161000000
H    -0.522000000    -3.352000000     2.213000000
C     0.343000000    -2.514000000     5.353000000
H     0.130000000    -1.736000000     6.081000000
C     1.474000000    -3.321000000     5.535000000
O     2.247000000    -3.099000000     6.664000000
C     1.891000000    -4.223000000     4.527000000
H     2.798000000    -4.797000000     4.700000000
C     1.148000000    -4.305000000     3.385000000
O     1.395000000    -5.251000000     2.429000000
C     0.467000000    -5.724000000     1.484000000
C     0.865000000    -5.536000000     0.127000000
H     1.833000000    -5.098000000    -0.102000000
C    -0.861000000    -6.194000000     1.858000000
H    -1.074000000    -6.327000000     2.916000000
C    -1.587000000    -6.752000000     0.798000000
H    -2.471000000    -7.368000000     0.942000000
C    -1.183000000    -6.542000000    -0.504000000
H    -1.808000000    -6.948000000    -1.295000000
C    -0.034000000    -5.894000000    -0.822000000
O     0.294000000    -5.630000000    -2.086000000
C    -0.330000000    -4.581000000    -2.711000000
C    -0.095000000    -4.459000000    -4.084000000
H     0.748000000    -4.853000000    -4.646000000
C    -0.793000000    -3.567000000    -4.879000000
O    -0.528000000    -3.588000000    -6.191000000
C    -0.454000000    -2.501000000    -6.987000000
C     0.585000000    -1.593000000    -6.895000000
H     1.427000000    -1.822000000    -6.248000000
C    -1.458000000    -2.347000000    -7.994000000
H    -2.352000000    -2.965000000    -7.948000000
C    -1.484000000    -1.263000000    -8.822000000
H    -2.113000000    -1.195000000    -9.706000000
C    -0.512000000    -0.266000000    -8.621000000
H    -0.481000000     0.581000000    -9.301000000
C     0.458000000    -0.434000000    -7.673000000
O     1.333000000     0.595000000    -7.489000000
C     1.581000000     1.219000000    -6.285000000
C     2.883000000     1.337000000    -5.775000000
H     3.748000000     0.957000000    -6.313000000
C     3.142000000     2.022000000    -4.633000000
O     4.411000000     2.183000000    -4.215000000
C     4.860000000     2.308000000    -2.911000000
C     4.430000000     1.522000000    -1.814000000
H     3.568000000     0.866000000    -1.900000000
C     5.879000000     3.245000000    -2.754000000
H     6.339000000     3.843000000    -3.536000000
C     6.484000000     3.371000000    -1.515000000
H     7.347000000     4.027000000    -1.433000000
C     6.161000000     2.562000000    -0.431000000
H     6.704000000     2.568000000     0.511000000
C     5.080000000     1.682000000    -0.585000000
O     4.849000000     0.738000000     0.458000000
C     4.177000000     1.059000000     1.584000000
C     4.777000000     0.713000000     2.797000000
H     5.644000000     0.058000000     2.805000000
C     4.233000000     1.259000000     3.984000000
O     4.705000000     0.721000000     5.212000000
C     3.916000000     0.147000000     6.177000000
C     3.887000000     0.627000000     7.491000000
H     4.512000000     1.465000000     7.789000000
C     3.291000000    -0.138000000     8.463000000
H     3.340000000     0.236000000     9.483000000
C     2.680000000    -1.383000000     8.230000000
H     2.203000000    -1.793000000     9.117000000
C     2.754000000    -1.885000000     6.939000000
C     3.481000000    -1.151000000     6.006000000
H     3.691000000    -1.587000000     5.033000000
C     1.604000000    -1.397000000    -1.917000000
H     1.909000000    -1.586000000    -2.943000000
C     0.485000000    -0.571000000    -1.775000000
H    -0.037000000    -0.138000000    -2.625000000
C     0.228000000    -0.180000000    -0.470000000
C    -0.931000000     0.843000000    -0.285000000
H    -1.807000000     0.683000000    -0.918000000
H    -1.196000000     0.730000000     0.769000000
H    -0.555000000     1.868000000    -0.305000000
C     1.004000000    -0.515000000     0.656000000
H     0.575000000    -0.221000000     1.610000000
C     2.108000000    -1.329000000     0.478000000
H     2.735000000    -1.656000000     1.304000000
C     2.400000000    -1.740000000    -0.841000000
C     3.648000000    -2.504000000    -0.979000000
O     4.267000000    -2.973000000    -0.049000000
O     4.060000000    -2.841000000    -2.030000000
O     6.088000000    -5.847000000    -4.626000000
H     6.279000000    -5.251000000    -3.901000000
H     6.948000000    -6.081000000    -4.976000000
O     5.170000000    -6.437000000     2.375000000
H     4.379000000    -6.871000000     2.055000000
H     5.862000000    -7.090000000     2.265000000
O     8.690000000    -3.115000000    -4.388000000
H     7.896000000    -3.198000000    -3.860000000
H     8.952000000    -4.017000000    -4.572000000
O     8.129000000    -0.726000000    -1.630000000
H     8.799000000    -0.266000000    -1.126000000
H     7.444000000    -0.927000000    -0.992000000
O     2.011000000    -7.615000000    -4.279000000
H     1.162000000    -7.871000000    -3.918000000
H     2.133000000    -6.712000000    -3.987000000
O     3.568000000    -3.673000000    -6.592000000
H     3.468000000    -3.015000000    -7.280000000
H     3.954000000    -3.195000000    -5.858000000
O     4.579000000    -8.257000000    -0.555000000
H     4.564000000    -7.357000000    -0.883000000
H     4.012000000    -8.240000000     0.216000000
O     6.660000000    -1.981000000     0.640000000
H     7.104000000    -2.795000000     0.403000000
H     5.728000000    -2.193000000     0.586000000
O     6.391000000    -3.618000000    -2.540000000
H     6.863000000    -3.603000000    -1.708000000
H     5.472000000    -3.505000000    -2.296000000
O     6.789000000     0.010000000    -4.068000000
H     7.400000000    -0.275000000    -3.390000000
H     6.205000000     0.624000000    -3.622000000
O     7.309000000    -4.282000000     2.097000000
H     6.630000000    -4.894000000     2.382000000
H     7.192000000    -3.516000000     2.658000000
O     8.030000000     0.460000000     1.502000000
H     7.460000000    -0.310000000     1.496000000
H     8.194000000     0.629000000     2.429000000
O     4.449000000    -2.175000000    -4.583000000
H     5.337000000    -1.817000000    -4.598000000
H     4.241000000    -2.263000000    -3.653000000
O     4.298000000    -5.557000000    -0.858000000
H     3.820000000    -5.531000000    -1.687000000
H     4.417000000    -4.637000000    -0.621000000
O    10.583000000    -2.909000000    -0.828000000
H    11.199000000    -2.531000000    -1.455000000
H     9.731000000    -2.561000000    -1.090000000
O     7.810000000    -4.789000000    -0.551000000
H     7.676000000    -4.792000000     0.396000000
H     7.916000000    -5.712000000    -0.781000000
O     3.039000000    -4.932000000    -3.500000000
H     3.789000000    -4.941000000    -4.094000000
H     2.957000000    -4.018000000    -3.230000000
O     5.860000000    -4.623000000     4.857000000
H     5.447000000    -4.288000000     4.061000000
H     5.585000000    -5.538000000     4.904000000
O     4.517000000    -3.770000000     2.747000000
H     4.611000000    -4.675000000     2.450000000
H     4.565000000    -3.249000000     1.945000000
