218
-1469.10271
C    -5.000000000     1.478000000     0.962000000
H    -4.892000000     2.531000000     0.716000000
C    -4.262000000     0.956000000     2.021000000
C    -4.495000000    -0.298000000     2.498000000
H    -3.887000000    -0.750000000     3.278000000
C    -3.033000000     1.729000000     2.635000000
O    -3.088000000     3.119000000     2.251000000
H    -2.217000000     1.252000000     2.072000000
O    -2.779000000     1.444000000     4.041000000
C    -1.518000000     1.139000000     4.348000000
C    -1.143000000    -0.194000000     4.428000000
H    -1.874000000    -0.996000000     4.493000000
C     0.177000000    -0.568000000     4.649000000
O     0.539000000    -1.892000000     4.703000000
C     1.163000000     0.433000000     4.725000000
C     2.637000000     0.146000000     4.894000000
H     3.144000000     1.022000000     5.306000000
C     3.345000000    -0.220000000     3.574000000
C     3.952000000     0.811000000     2.859000000
H     4.027000000     1.786000000     3.334000000
H     2.892000000    -0.656000000     5.590000000
C     0.773000000     1.785000000     4.647000000
H     1.599000000     2.489000000     4.695000000
C    -0.529000000     2.149000000     4.451000000
C    -0.884000000     3.689000000     4.265000000
H    -0.129000000     4.289000000     4.777000000
H    -1.800000000     3.947000000     4.801000000
C    -0.877000000     4.030000000     2.800000000
C     0.311000000     4.562000000     2.249000000
H     1.179000000     4.767000000     2.870000000
C    -1.955000000     3.731000000     1.887000000
C    -1.891000000     4.062000000     0.585000000
H    -2.858000000     3.908000000     0.114000000
C    -0.769000000     4.561000000     0.046000000
O    -0.728000000     4.747000000    -1.322000000
C     0.174000000     3.848000000    -2.091000000
C    -0.546000000     3.320000000    -3.301000000
C     0.102000000     3.258000000    -4.512000000
H     1.145000000     3.548000000    -4.416000000
C    -1.830000000     2.849000000    -3.161000000
H    -2.341000000     3.030000000    -2.219000000
O     1.439000000     4.471000000    -2.317000000
H     0.297000000     2.978000000    -1.429000000
C     0.377000000     4.728000000     0.849000000
C     1.721000000     5.334000000     0.414000000
H     2.231000000     5.679000000     1.316000000
H     1.674000000     6.162000000    -0.296000000
C     2.624000000     4.293000000    -0.296000000
C     3.589000000     3.632000000     0.463000000
H     3.828000000     3.945000000     1.476000000
C     2.517000000     3.982000000    -1.660000000
C     3.114000000     2.809000000    -2.101000000
H     2.816000000     2.540000000    -3.111000000
C     4.030000000     2.106000000    -1.343000000
O     4.601000000     1.006000000    -1.827000000
C     4.058000000    -0.275000000    -1.307000000
C     3.772000000    -1.348000000    -2.369000000
C     3.585000000    -0.881000000    -3.661000000
H     3.623000000     0.194000000    -3.815000000
C     3.774000000    -2.747000000    -2.184000000
H     3.908000000    -3.122000000    -1.172000000
O     4.856000000    -0.812000000    -0.218000000
H     3.058000000    -0.065000000    -0.899000000
C     4.298000000     2.560000000    -0.058000000
C     5.255000000     1.828000000     0.818000000
H     5.695000000     2.523000000     1.536000000
H     6.057000000     1.478000000     0.165000000
C     4.633000000     0.608000000     1.653000000
C     4.452000000    -0.672000000     1.088000000
C     3.806000000    -1.704000000     1.745000000
H     3.696000000    -2.717000000     1.366000000
C     3.335000000    -1.500000000     3.030000000
O     2.535000000    -2.457000000     3.645000000
C     1.065000000    -2.383000000     3.518000000
H     0.823000000    -1.722000000     2.673000000
C     0.368000000    -3.663000000     3.124000000
C    -0.822000000    -4.016000000     3.792000000
H    -1.088000000    -3.409000000     4.654000000
C     0.897000000    -4.566000000     2.126000000
H     1.794000000    -4.244000000     1.603000000
C     0.213000000    -5.679000000     1.793000000
O     0.580000000    -6.420000000     0.642000000
C    -1.018000000    -6.001000000     2.384000000
H    -1.638000000    -6.830000000     2.053000000
C    -1.492000000    -5.224000000     3.483000000
O    -2.661000000    -5.576000000     4.147000000
C    -3.720000000    -4.745000000     4.263000000
C    -4.044000000    -3.871000000     3.169000000
H    -3.316000000    -3.855000000     2.362000000
C    -4.554000000    -4.843000000     5.393000000
H    -4.199000000    -5.452000000     6.220000000
C    -5.742000000    -4.101000000     5.315000000
H    -6.414000000    -4.121000000     6.170000000
C    -6.123000000    -3.278000000     4.259000000
H    -7.016000000    -2.669000000     4.373000000
C    -5.260000000    -3.174000000     3.172000000
O    -5.633000000    -2.485000000     2.018000000
C    -5.360000000    -1.169000000     1.786000000
C    -6.137000000    -0.568000000     0.772000000
H    -6.837000000    -1.253000000     0.301000000
C    -5.944000000     0.744000000     0.362000000
O    -6.821000000     1.272000000    -0.637000000
C    -6.364000000     2.056000000    -1.657000000
C    -5.256000000     1.616000000    -2.354000000
H    -4.727000000     0.734000000    -2.003000000
C    -7.000000000     3.252000000    -2.042000000
H    -7.861000000     3.591000000    -1.473000000
C    -6.512000000     3.980000000    -3.119000000
H    -7.013000000     4.919000000    -3.342000000
C    -5.348000000     3.518000000    -3.764000000
H    -4.950000000     3.975000000    -4.666000000
C    -4.766000000     2.342000000    -3.430000000
O    -3.748000000     1.751000000    -4.175000000
C    -2.495000000     2.293000000    -4.236000000
C    -1.824000000     2.214000000    -5.510000000
H    -2.342000000     1.730000000    -6.334000000
C    -0.491000000     2.677000000    -5.615000000
O     0.103000000     2.445000000    -6.847000000
C     1.390000000     1.870000000    -6.993000000
C     1.581000000     0.635000000    -6.429000000
H     0.784000000     0.153000000    -5.868000000
C     2.358000000     2.430000000    -7.851000000
H     2.090000000     3.311000000    -8.429000000
C     3.576000000     1.778000000    -7.987000000
H     4.387000000     2.207000000    -8.569000000
C     3.838000000     0.598000000    -7.333000000
H     4.831000000     0.158000000    -7.283000000
C     2.789000000    -0.043000000    -6.629000000
O     3.039000000    -1.288000000    -6.062000000
C     3.257000000    -1.735000000    -4.737000000
C     3.096000000    -3.113000000    -4.473000000
H     2.706000000    -3.814000000    -5.206000000
C     3.446000000    -3.608000000    -3.230000000
O     3.446000000    -4.970000000    -3.005000000
C     3.233000000    -5.636000000    -1.822000000
C     4.342000000    -6.255000000    -1.237000000
H     5.330000000    -6.309000000    -1.688000000
C     4.215000000    -6.925000000    -0.025000000
H     5.020000000    -7.515000000     0.406000000
C     2.985000000    -6.878000000     0.637000000
H     2.916000000    -7.309000000     1.632000000
C     1.828000000    -6.262000000     0.094000000
C     2.013000000    -5.624000000    -1.159000000
H     1.178000000    -5.047000000    -1.549000000
C    -0.495000000    -0.267000000    -2.854000000
H    -0.114000000    -0.201000000    -3.870000000
C     0.186000000     0.177000000    -1.718000000
H     1.216000000     0.514000000    -1.795000000
C    -0.369000000     0.036000000    -0.459000000
C     0.419000000     0.300000000     0.752000000
H     0.934000000    -0.629000000     1.005000000
H     1.056000000     1.166000000     0.563000000
H    -0.250000000     0.557000000     1.576000000
C    -1.694000000    -0.530000000    -0.359000000
H    -2.169000000    -0.662000000     0.610000000
C    -2.364000000    -0.926000000    -1.528000000
H    -3.381000000    -1.302000000    -1.442000000
C    -1.792000000    -0.710000000    -2.825000000
C    -2.527000000    -1.068000000    -4.024000000
O    -3.663000000    -1.482000000    -3.836000000
O    -1.941000000    -0.995000000    -5.148000000
O    -6.534000000    -4.234000000    -0.398000000
H    -6.634000000    -3.309000000    -0.173000000
H    -5.874000000    -4.241000000    -1.091000000
O    -3.485000000    -6.135000000    -2.739000000
H    -4.326000000    -5.990000000    -3.172000000
H    -3.677000000    -6.768000000    -2.047000000
O    -9.038000000    -1.010000000    -3.485000000
H    -9.325000000    -0.211000000    -3.927000000
H    -8.296000000    -1.318000000    -4.004000000
O    -6.988000000     1.167000000    -5.003000000
H    -7.157000000     1.115000000    -4.063000000
H    -7.853000000     1.094000000    -5.407000000
O    -4.981000000    -4.285000000    -7.894000000
H    -5.323000000    -3.705000000    -8.575000000
H    -5.697000000    -4.896000000    -7.719000000
O    -5.578000000    -1.086000000    -5.627000000
H    -5.019000000    -1.102000000    -4.850000000
H    -5.974000000    -0.215000000    -5.618000000
O    -5.243000000    -4.845000000    -4.515000000
H    -5.096000000    -4.319000000    -3.728000000
H    -4.623000000    -4.494000000    -5.155000000
O    -7.866000000    -2.843000000    -5.554000000
H    -7.031000000    -3.197000000    -5.249000000
H    -7.707000000    -2.610000000    -6.469000000
O    -5.306000000     2.601000000    -8.104000000
H    -5.305000000     1.907000000    -8.763000000
H    -4.536000000     2.420000000    -7.564000000
O    -0.582000000    -3.547000000    -4.511000000
H    -0.519000000    -2.595000000    -4.427000000
H    -1.151000000    -3.683000000    -5.269000000
O    -3.157000000    -1.042000000    -7.438000000
H    -2.780000000    -1.049000000    -6.559000000
H    -4.088000000    -1.221000000    -7.301000000
O    -3.050000000    -3.652000000    -5.869000000
H    -3.244000000    -2.719000000    -5.777000000
H    -3.525000000    -3.919000000    -6.656000000
O    -1.628000000    -3.626000000    -8.526000000
H    -1.208000000    -2.948000000    -7.996000000
H    -2.134000000    -4.142000000    -7.898000000
O    -4.607000000    -3.412000000    -2.181000000
H    -4.355000000    -2.695000000    -2.763000000
H    -3.824000000    -3.960000000    -2.123000000
O    -0.995000000    -0.127000000    -9.025000000
H    -0.849000000     0.703000000    -9.480000000
H    -1.888000000    -0.059000000    -8.685000000
O    -4.712000000    -2.038000000    -9.783000000
H    -3.856000000    -2.031000000    -9.355000000
H    -4.857000000    -1.129000000   -10.046000000
O    -0.925000000    -6.169000000    -3.914000000
H    -0.627000000    -5.300000000    -4.182000000
H    -1.771000000    -6.013000000    -3.494000000
O     2.008000000    -3.463000000    -7.821000000
H     1.610000000    -2.692000000    -7.418000000
H     1.574000000    -4.205000000    -7.398000000
O    -0.257000000    -1.884000000    -7.053000000
H    -0.840000000    -1.688000000    -6.320000000
H    -0.448000000    -1.205000000    -7.699000000
