17
-95.17805
C    -0.404000000    -0.541000000    -2.258000000
H    -0.037000000    -0.789000000    -3.250000000
C     0.484000000    -0.010000000    -1.346000000
H     1.499000000     0.231000000    -1.653000000
C    -0.080000000     0.213000000    -0.052000000
C     0.771000000     0.918000000     0.960000000
H     0.802000000     2.007000000     0.893000000
H     0.427000000     0.801000000     1.990000000
H     1.832000000     0.671000000     0.879000000
C    -1.357000000    -0.258000000     0.256000000
H    -1.717000000    -0.252000000     1.281000000
C    -2.192000000    -0.734000000    -0.704000000
H    -3.220000000    -1.016000000    -0.490000000
C    -1.734000000    -0.826000000    -1.997000000
C    -2.542000000    -1.317000000    -3.195000000
O    -3.715000000    -1.448000000    -2.953000000
O    -2.020000000    -1.835000000    -4.203000000
