17
-94.95122
C     0.647000000    -2.142000000    -1.355000000
H     0.698000000    -2.711000000    -2.280000000
C     0.027000000    -0.867000000    -1.296000000
H    -0.485000000    -0.397000000    -2.133000000
C     0.016000000    -0.111000000    -0.069000000
C    -0.771000000     1.117000000     0.048000000
H    -0.151000000     1.870000000    -0.444000000
H    -1.710000000     1.040000000    -0.505000000
H    -0.983000000     1.411000000     1.078000000
C     0.805000000    -0.523000000     0.985000000
H     0.787000000     0.043000000     1.913000000
C     1.376000000    -1.775000000     0.944000000
H     1.880000000    -2.053000000     1.866000000
C     1.338000000    -2.550000000    -0.216000000
C     2.212000000    -3.788000000    -0.180000000
O     2.953000000    -4.054000000     0.728000000
O     2.203000000    -4.521000000    -1.177000000
