17
-93.24502
C    -0.882000000    -0.817000000    -2.444000000
H    -0.942000000    -0.702000000    -3.523000000
C     0.024000000    -0.083000000    -1.686000000
H     0.830000000     0.458000000    -2.177000000
C    -0.077000000    -0.057000000    -0.302000000
C     0.921000000     0.761000000     0.453000000
H     1.118000000     0.372000000     1.454000000
H     1.820000000     0.733000000    -0.167000000
H     0.724000000     1.834000000     0.505000000
C    -1.056000000    -0.795000000     0.294000000
H    -1.095000000    -0.730000000     1.378000000
C    -1.989000000    -1.527000000    -0.484000000
H    -2.780000000    -2.039000000     0.057000000
C    -1.906000000    -1.579000000    -1.839000000
C    -2.918000000    -2.333000000    -2.700000000
O    -3.906000000    -2.888000000    -2.255000000
O    -2.702000000    -2.325000000    -3.854000000
