17
-96.95456
C    -1.922000000    -3.267000000    -2.267000000
H    -1.900000000    -4.027000000    -3.044000000
C    -0.859000000    -2.397000000    -1.996000000
H    -0.012000000    -2.564000000    -2.657000000
C    -0.895000000    -1.438000000    -1.011000000
C     0.238000000    -0.480000000    -0.705000000
H    -0.095000000     0.544000000    -0.888000000
H     0.539000000    -0.686000000     0.324000000
H     0.978000000    -0.742000000    -1.464000000
C    -2.114000000    -1.237000000    -0.305000000
H    -2.065000000    -0.409000000     0.398000000
C    -3.234000000    -2.001000000    -0.613000000
H    -4.187000000    -1.755000000    -0.152000000
C    -3.105000000    -3.067000000    -1.554000000
C    -4.310000000    -3.941000000    -1.839000000
O    -5.408000000    -3.487000000    -1.515000000
O    -4.208000000    -4.855000000    -2.631000000
