17
-90.00323
C    -1.051000000    -1.766000000    -1.865000000
H    -0.735000000    -2.126000000    -2.841000000
C    -0.230000000    -0.838000000    -1.181000000
H     0.663000000    -0.502000000    -1.701000000
C    -0.516000000    -0.417000000     0.092000000
C     0.551000000     0.403000000     0.767000000
H     0.722000000    -0.018000000     1.760000000
H     1.505000000     0.436000000     0.238000000
H     0.122000000     1.405000000     0.829000000
C    -1.651000000    -0.807000000     0.682000000
H    -1.731000000    -0.597000000     1.745000000
C    -2.531000000    -1.623000000    -0.006000000
H    -3.433000000    -1.984000000     0.481000000
C    -2.267000000    -2.139000000    -1.281000000
C    -3.333000000    -2.976000000    -1.891000000
O    -4.402000000    -3.243000000    -1.394000000
O    -3.190000000    -3.322000000    -3.060000000
