17
-96.17654
C    -2.012000000    -2.419000000    -2.060000000
H    -1.966000000    -2.830000000    -3.066000000
C    -0.909000000    -1.626000000    -1.650000000
H    -0.147000000    -1.468000000    -2.408000000
C    -0.877000000    -1.008000000    -0.392000000
C     0.304000000    -0.110000000     0.006000000
H     0.809000000     0.158000000    -0.925000000
H    -0.080000000     0.819000000     0.432000000
H     0.989000000    -0.596000000     0.703000000
C    -1.876000000    -1.340000000     0.519000000
H    -1.759000000    -0.998000000     1.544000000
C    -2.950000000    -2.157000000     0.121000000
H    -3.698000000    -2.446000000     0.855000000
C    -3.052000000    -2.700000000    -1.157000000
C    -4.202000000    -3.633000000    -1.494000000
O    -4.960000000    -3.977000000    -0.593000000
O    -4.425000000    -4.019000000    -2.587000000
