17
-87.99046
C    -0.549000000    -1.385000000    -2.761000000
H    -0.296000000    -1.276000000    -3.812000000
C     0.288000000    -0.743000000    -1.855000000
H     1.065000000    -0.091000000    -2.245000000
C     0.040000000    -0.875000000    -0.508000000
C     0.909000000    -0.051000000     0.363000000
H     1.253000000     0.918000000    -0.003000000
H     0.345000000     0.178000000     1.270000000
H     1.796000000    -0.560000000     0.744000000
C    -0.978000000    -1.709000000    -0.051000000
H    -1.182000000    -1.727000000     1.016000000
C    -1.770000000    -2.384000000    -1.008000000
H    -2.562000000    -2.985000000    -0.569000000
C    -1.521000000    -2.294000000    -2.399000000
C    -2.394000000    -3.100000000    -3.314000000
O    -3.243000000    -3.862000000    -2.994000000
O    -2.232000000    -2.892000000    -4.480000000
