17
-98.04378
C    -1.435000000    -1.795000000    -2.281000000
H    -1.283000000    -2.106000000    -3.312000000
C    -0.524000000    -0.914000000    -1.612000000
H     0.352000000    -0.453000000    -2.062000000
C    -0.682000000    -0.552000000    -0.306000000
C     0.385000000     0.290000000     0.374000000
H     1.367000000     0.144000000    -0.082000000
H     0.225000000     1.370000000     0.340000000
H     0.412000000     0.013000000     1.430000000
C    -1.800000000    -1.067000000     0.398000000
H    -1.930000000    -0.776000000     1.437000000
C    -2.737000000    -1.868000000    -0.214000000
H    -3.639000000    -2.171000000     0.310000000
C    -2.602000000    -2.156000000    -1.574000000
C    -3.781000000    -2.674000000    -2.306000000
O    -4.843000000    -2.879000000    -1.723000000
O    -3.651000000    -2.966000000    -3.492000000
