17
-93.53003
C    -0.968000000    -0.871000000    -2.134000000
H    -0.835000000    -1.049000000    -3.198000000
C     0.079000000    -0.311000000    -1.394000000
H     0.895000000     0.149000000    -1.945000000
C    -0.027000000    -0.176000000    -0.060000000
C     1.075000000     0.236000000     0.808000000
H     1.313000000    -0.564000000     1.512000000
H     2.016000000     0.357000000     0.267000000
H     0.968000000     1.216000000     1.276000000
C    -1.187000000    -0.544000000     0.582000000
H    -1.307000000    -0.295000000     1.633000000
C    -2.270000000    -1.085000000    -0.149000000
H    -3.140000000    -1.468000000     0.379000000
C    -2.138000000    -1.290000000    -1.539000000
C    -3.215000000    -1.992000000    -2.243000000
O    -4.058000000    -2.593000000    -1.591000000
O    -3.299000000    -2.112000000    -3.487000000
