17
-94.80748
C    -1.262000000    -1.704000000    -1.922000000
H    -1.070000000    -1.974000000    -2.958000000
C    -0.231000000    -0.954000000    -1.265000000
H     0.648000000    -0.731000000    -1.864000000
C    -0.382000000    -0.589000000     0.076000000
C     0.751000000     0.143000000     0.767000000
H     0.459000000     0.259000000     1.813000000
H     1.706000000    -0.384000000     0.705000000
H     0.837000000     1.141000000     0.333000000
C    -1.505000000    -0.950000000     0.747000000
H    -1.471000000    -0.644000000     1.789000000
C    -2.512000000    -1.704000000     0.128000000
H    -3.399000000    -2.090000000     0.623000000
C    -2.376000000    -2.099000000    -1.194000000
C    -3.508000000    -2.792000000    -1.890000000
O    -4.592000000    -2.995000000    -1.360000000
O    -3.421000000    -3.031000000    -3.072000000
