17
-89.25016
C    -1.086000000    -0.586000000    -2.109000000
H    -1.071000000    -1.010000000    -3.109000000
C     0.103000000    -0.396000000    -1.322000000
H     1.021000000    -0.772000000    -1.765000000
C     0.067000000    -0.064000000     0.009000000
C     1.334000000     0.066000000     0.857000000
H     1.838000000     1.027000000     0.735000000
H     1.186000000    -0.068000000     1.930000000
H     2.050000000    -0.705000000     0.563000000
C    -1.199000000     0.285000000     0.552000000
H    -1.293000000     0.711000000     1.547000000
C    -2.388000000     0.161000000    -0.152000000
H    -3.273000000     0.529000000     0.361000000
C    -2.371000000    -0.267000000    -1.540000000
C    -3.674000000    -0.445000000    -2.307000000
O    -4.752000000    -0.165000000    -1.866000000
O    -3.587000000    -0.524000000    -3.542000000
