17
-96.30348
C    -1.016000000    -0.375000000    -2.348000000
H    -0.869000000    -0.682000000    -3.380000000
C     0.107000000    -0.384000000    -1.586000000
H     1.119000000    -0.547000000    -1.947000000
C     0.089000000    -0.123000000    -0.193000000
C     1.411000000    -0.276000000     0.538000000
H     2.280000000    -0.167000000    -0.115000000
H     1.409000000     0.521000000     1.284000000
H     1.516000000    -1.208000000     1.098000000
C    -1.139000000     0.152000000     0.386000000
H    -1.208000000     0.486000000     1.418000000
C    -2.325000000     0.180000000    -0.340000000
H    -3.291000000     0.368000000     0.121000000
C    -2.275000000    -0.083000000    -1.737000000
C    -3.570000000    -0.232000000    -2.496000000
O    -4.636000000     0.087000000    -2.000000000
O    -3.477000000    -0.490000000    -3.683000000
