17
-95.20191
C    -1.439000000    -0.661000000    -2.232000000
H    -1.462000000    -1.069000000    -3.240000000
C    -0.235000000    -0.673000000    -1.524000000
H     0.679000000    -0.991000000    -2.020000000
C    -0.234000000    -0.261000000    -0.167000000
C     1.081000000    -0.113000000     0.566000000
H     1.211000000    -1.081000000     1.054000000
H     1.831000000     0.008000000    -0.219000000
H     0.979000000     0.754000000     1.222000000
C    -1.412000000     0.053000000     0.445000000
H    -1.341000000     0.327000000     1.495000000
C    -2.605000000     0.047000000    -0.238000000
H    -3.472000000     0.372000000     0.331000000
C    -2.642000000    -0.327000000    -1.605000000
C    -3.960000000    -0.294000000    -2.305000000
O    -4.918000000     0.262000000    -1.795000000
O    -4.113000000    -1.077000000    -3.217000000
