17
-82.26855
C    -0.793000000    -0.059000000    -2.617000000
H    -0.808000000    -0.194000000    -3.696000000
C     0.293000000    -0.240000000    -1.748000000
H     1.233000000    -0.549000000    -2.199000000
C     0.160000000     0.010000000    -0.398000000
C     1.370000000    -0.040000000     0.450000000
H     1.463000000    -1.080000000     0.771000000
H     2.318000000     0.274000000     0.009000000
H     1.205000000     0.583000000     1.332000000
C    -1.045000000     0.408000000     0.156000000
H    -1.025000000     0.491000000     1.239000000
C    -2.171000000     0.451000000    -0.613000000
H    -3.155000000     0.671000000    -0.207000000
C    -2.074000000     0.209000000    -1.986000000
C    -3.302000000     0.428000000    -2.903000000
O    -4.378000000     0.676000000    -2.476000000
O    -3.202000000    -0.143000000    -3.936000000
