17
-88.49142
C    -2.035000000    -1.640000000    -1.578000000
H    -2.034000000    -2.355000000    -2.397000000
C    -0.866000000    -1.162000000    -1.031000000
H     0.093000000    -1.541000000    -1.376000000
C    -0.815000000    -0.182000000    -0.035000000
C     0.545000000     0.188000000     0.627000000
H     0.602000000    -0.089000000     1.682000000
H     1.301000000    -0.492000000     0.230000000
H     0.836000000     1.235000000     0.515000000
C    -2.026000000     0.260000000     0.525000000
H    -2.092000000     0.927000000     1.380000000
C    -3.216000000    -0.210000000    -0.026000000
H    -4.128000000     0.215000000     0.387000000
C    -3.238000000    -1.226000000    -0.984000000
C    -4.491000000    -1.798000000    -1.502000000
O    -5.490000000    -1.281000000    -1.137000000
O    -4.544000000    -2.610000000    -2.394000000
