17
-96.40087
C    -1.264000000    -1.032000000    -1.760000000
H    -1.275000000    -1.744000000    -2.581000000
C    -0.064000000    -0.715000000    -1.086000000
H     0.882000000    -1.039000000    -1.511000000
C    -0.096000000    -0.066000000     0.152000000
C     1.187000000     0.026000000     0.940000000
H     1.116000000    -0.421000000     1.934000000
H     2.045000000    -0.395000000     0.412000000
H     1.494000000     1.062000000     1.103000000
C    -1.283000000     0.344000000     0.666000000
H    -1.277000000     0.830000000     1.637000000
C    -2.501000000     0.102000000    -0.031000000
H    -3.441000000     0.499000000     0.345000000
C    -2.454000000    -0.545000000    -1.253000000
C    -3.791000000    -0.922000000    -1.955000000
O    -4.843000000    -0.495000000    -1.492000000
O    -3.829000000    -1.637000000    -2.898000000
