17
-97.13271
C    -2.955000000    -1.419000000    -0.444000000
H    -3.320000000    -2.361000000    -0.846000000
C    -1.584000000    -1.297000000    -0.267000000
H    -0.997000000    -2.158000000    -0.577000000
C    -0.974000000    -0.056000000    -0.022000000
C     0.540000000     0.112000000    -0.045000000
H     1.039000000    -0.845000000     0.119000000
H     0.729000000     0.332000000    -1.098000000
H     0.937000000     0.936000000     0.551000000
C    -1.754000000     1.048000000     0.101000000
H    -1.333000000     2.046000000     0.193000000
C    -3.143000000     0.935000000    -0.045000000
H    -3.686000000     1.865000000     0.106000000
C    -3.730000000    -0.279000000    -0.377000000
C    -5.226000000    -0.395000000    -0.676000000
O    -5.942000000     0.621000000    -0.623000000
O    -5.716000000    -1.488000000    -0.847000000
