17
-89.89956
C    -3.414000000    -1.904000000    -0.028000000
H    -3.893000000    -2.874000000    -0.141000000
C    -2.034000000    -1.795000000     0.002000000
H    -1.412000000    -2.663000000    -0.203000000
C    -1.352000000    -0.583000000     0.246000000
C     0.156000000    -0.493000000     0.084000000
H     0.361000000    -0.209000000    -0.951000000
H     0.475000000     0.237000000     0.832000000
H     0.696000000    -1.417000000     0.298000000
C    -2.148000000     0.581000000     0.326000000
H    -1.674000000     1.556000000     0.395000000
C    -3.549000000     0.441000000     0.134000000
H    -4.088000000     1.383000000     0.071000000
C    -4.221000000    -0.774000000     0.111000000
C    -5.745000000    -0.876000000     0.118000000
O    -6.584000000    -0.055000000    -0.101000000
O    -6.183000000    -1.973000000     0.463000000
