17
-86.71481
C    -2.361000000    -1.655000000    -0.099000000
H    -2.859000000    -2.544000000    -0.477000000
C    -0.969000000    -1.519000000    -0.320000000
H    -0.337000000    -2.307000000    -0.723000000
C    -0.369000000    -0.413000000     0.141000000
C     1.153000000    -0.256000000     0.126000000
H     1.636000000    -0.430000000    -0.838000000
H     1.446000000     0.704000000     0.556000000
H     1.468000000    -0.989000000     0.872000000
C    -1.127000000     0.642000000     0.685000000
H    -0.664000000     1.606000000     0.880000000
C    -2.503000000     0.588000000     0.835000000
H    -3.063000000     1.390000000     1.309000000
C    -3.147000000    -0.560000000     0.411000000
C    -4.620000000    -0.626000000     0.604000000
O    -5.199000000     0.330000000     0.982000000
O    -5.266000000    -1.549000000     0.153000000
