17
-93.45007
C    -1.865000000    -2.029000000    -0.840000000
H    -2.054000000    -3.003000000    -1.285000000
C    -0.639000000    -1.544000000    -0.498000000
H     0.160000000    -2.261000000    -0.664000000
C    -0.468000000    -0.267000000     0.025000000
C     0.882000000     0.257000000     0.217000000
H     0.840000000     1.332000000     0.400000000
H     1.354000000    -0.356000000     0.987000000
H     1.404000000     0.080000000    -0.726000000
C    -1.601000000     0.577000000     0.277000000
H    -1.485000000     1.617000000     0.571000000
C    -2.882000000     0.056000000    -0.043000000
H    -3.766000000     0.662000000     0.139000000
C    -3.013000000    -1.255000000    -0.597000000
C    -4.405000000    -1.839000000    -0.961000000
O    -5.446000000    -1.167000000    -0.838000000
O    -4.369000000    -2.801000000    -1.653000000
