17
-96.17670
C    -2.283000000    -1.367000000    -1.512000000
H    -2.384000000    -2.205000000    -2.198000000
C    -1.020000000    -0.978000000    -0.997000000
H    -0.125000000    -1.543000000    -1.245000000
C    -0.969000000     0.133000000    -0.093000000
C     0.279000000     0.619000000     0.457000000
H     0.177000000     1.692000000     0.632000000
H     0.649000000     0.118000000     1.355000000
H     1.124000000     0.373000000    -0.189000000
C    -2.106000000     0.840000000     0.236000000
H    -2.029000000     1.680000000     0.921000000
C    -3.303000000     0.273000000    -0.178000000
H    -4.193000000     0.833000000     0.096000000
C    -3.437000000    -0.818000000    -1.014000000
C    -4.798000000    -1.380000000    -1.411000000
O    -5.794000000    -0.743000000    -1.143000000
O    -4.829000000    -2.487000000    -1.913000000
