17
-100.50368
C    -2.288000000    -1.634000000    -1.684000000
H    -2.277000000    -2.390000000    -2.465000000
C    -1.056000000    -1.123000000    -1.269000000
H    -0.155000000    -1.539000000    -1.710000000
C    -0.896000000    -0.275000000    -0.211000000
C     0.452000000     0.137000000     0.384000000
H     0.358000000     0.706000000     1.311000000
H     1.027000000    -0.763000000     0.614000000
H     0.975000000     0.812000000    -0.296000000
C    -2.066000000     0.234000000     0.381000000
H    -1.911000000     0.933000000     1.198000000
C    -3.331000000    -0.227000000     0.012000000
H    -4.195000000     0.281000000     0.434000000
C    -3.440000000    -1.117000000    -1.098000000
C    -4.826000000    -1.590000000    -1.525000000
O    -5.869000000    -1.061000000    -1.041000000
O    -4.848000000    -2.327000000    -2.515000000
