17
-92.69422
C    -1.616000000    -1.728000000    -0.788000000
H    -1.896000000    -2.697000000    -1.193000000
C    -0.295000000    -1.411000000    -0.301000000
H     0.496000000    -2.157000000    -0.282000000
C    -0.060000000    -0.165000000     0.134000000
C     1.328000000     0.061000000     0.676000000
H     1.233000000     0.551000000     1.648000000
H     1.915000000    -0.846000000     0.834000000
H     1.891000000     0.810000000     0.114000000
C    -1.030000000     0.818000000     0.152000000
H    -0.825000000     1.773000000     0.629000000
C    -2.330000000     0.536000000    -0.197000000
H    -3.123000000     1.277000000    -0.126000000
C    -2.711000000    -0.781000000    -0.665000000
C    -4.137000000    -1.108000000    -1.102000000
O    -5.007000000    -0.284000000    -0.957000000
O    -4.410000000    -2.223000000    -1.501000000
