17
-94.26119
C    -1.834000000    -2.180000000    -0.596000000
H    -1.892000000    -3.077000000    -1.207000000
C    -0.630000000    -1.597000000    -0.369000000
H     0.346000000    -2.017000000    -0.598000000
C    -0.640000000    -0.277000000     0.192000000
C     0.760000000     0.321000000     0.377000000
H     1.350000000     0.476000000    -0.529000000
H     0.641000000     1.272000000     0.901000000
H     1.365000000    -0.326000000     1.015000000
C    -1.806000000     0.436000000     0.276000000
H    -1.737000000     1.468000000     0.611000000
C    -3.032000000    -0.206000000     0.137000000
H    -3.978000000     0.322000000     0.224000000
C    -3.031000000    -1.501000000    -0.375000000
C    -4.397000000    -2.088000000    -0.674000000
O    -5.415000000    -1.444000000    -0.544000000
O    -4.458000000    -3.200000000    -1.165000000
