17
-95.88992
C     1.269000000    -2.442000000     0.420000000
H     1.376000000    -3.517000000     0.538000000
C     0.068000000    -1.704000000     0.330000000
H    -0.923000000    -2.145000000     0.404000000
C     0.127000000    -0.287000000     0.290000000
C    -1.107000000     0.630000000     0.182000000
H    -1.081000000     1.093000000    -0.807000000
H    -2.035000000     0.073000000     0.324000000
H    -0.936000000     1.425000000     0.911000000
C     1.322000000     0.374000000     0.097000000
H     1.458000000     1.450000000     0.025000000
C     2.481000000    -0.337000000     0.242000000
H     3.437000000     0.161000000     0.101000000
C     2.454000000    -1.723000000     0.343000000
C     3.786000000    -2.423000000     0.461000000
O     4.769000000    -1.919000000    -0.125000000
O     3.858000000    -3.512000000     0.962000000
