17
-89.71566
C    -2.097000000    -1.516000000    -1.260000000
H    -2.232000000    -2.450000000    -1.799000000
C    -0.794000000    -1.258000000    -0.738000000
H    -0.076000000    -2.070000000    -0.815000000
C    -0.566000000    -0.037000000    -0.136000000
C     0.828000000     0.279000000     0.500000000
H     1.562000000     0.528000000    -0.269000000
H     0.719000000     1.145000000     1.157000000
H     1.082000000    -0.660000000     0.997000000
C    -1.612000000     0.949000000    -0.192000000
H    -1.514000000     1.906000000     0.315000000
C    -2.866000000     0.626000000    -0.665000000
H    -3.607000000     1.416000000    -0.570000000
C    -3.111000000    -0.601000000    -1.209000000
C    -4.452000000    -0.910000000    -1.912000000
O    -5.423000000    -0.208000000    -1.746000000
O    -4.505000000    -1.890000000    -2.538000000
