17
-87.94923
C    -1.490000000    -2.356000000    -0.391000000
H    -1.599000000    -3.428000000    -0.533000000
C    -0.242000000    -1.681000000    -0.430000000
H     0.624000000    -2.335000000    -0.491000000
C    -0.162000000    -0.332000000    -0.128000000
C     1.112000000     0.486000000    -0.026000000
H     1.339000000     0.847000000    -1.032000000
H     1.178000000     1.319000000     0.677000000
H     1.917000000    -0.217000000     0.196000000
C    -1.408000000     0.360000000    -0.028000000
H    -1.464000000     1.424000000     0.186000000
C    -2.663000000    -0.282000000    -0.041000000
H    -3.627000000     0.199000000     0.101000000
C    -2.670000000    -1.647000000    -0.119000000
C    -3.969000000    -2.438000000    -0.101000000
O    -5.027000000    -1.828000000    -0.110000000
O    -4.053000000    -3.594000000    -0.409000000
