17
-93.12577
C    -1.690000000    -2.217000000    -0.621000000
H    -1.872000000    -3.283000000    -0.726000000
C    -0.477000000    -1.739000000    -0.240000000
H     0.332000000    -2.450000000    -0.093000000
C    -0.245000000    -0.359000000    -0.011000000
C     1.042000000     0.242000000     0.402000000
H     1.739000000    -0.592000000     0.507000000
H     1.426000000     0.773000000    -0.471000000
H     0.786000000     0.907000000     1.229000000
C    -1.380000000     0.467000000    -0.165000000
H    -1.355000000     1.526000000     0.079000000
C    -2.664000000    -0.005000000    -0.435000000
H    -3.567000000     0.598000000    -0.484000000
C    -2.832000000    -1.355000000    -0.694000000
C    -4.164000000    -2.022000000    -0.955000000
O    -5.123000000    -1.323000000    -1.224000000
O    -4.318000000    -3.248000000    -1.090000000
