17
-96.20676
C    -1.686000000    -2.494000000    -0.922000000
H    -1.650000000    -3.506000000    -1.317000000
C    -0.486000000    -1.926000000    -0.495000000
H     0.422000000    -2.514000000    -0.604000000
C    -0.477000000    -0.613000000     0.066000000
C     0.812000000     0.073000000     0.352000000
H     1.007000000     0.679000000    -0.535000000
H     0.759000000     0.750000000     1.207000000
H     1.715000000    -0.528000000     0.484000000
C    -1.717000000     0.057000000     0.181000000
H    -1.788000000     1.034000000     0.653000000
C    -2.888000000    -0.569000000    -0.213000000
H    -3.866000000    -0.132000000    -0.028000000
C    -2.915000000    -1.886000000    -0.787000000
C    -4.285000000    -2.430000000    -1.124000000
O    -5.255000000    -1.736000000    -1.130000000
O    -4.420000000    -3.633000000    -1.276000000
