17
-91.62110
C    -0.732000000    -2.299000000    -0.554000000
H    -0.577000000    -3.366000000    -0.697000000
C     0.271000000    -1.507000000    -0.122000000
H     1.254000000    -1.948000000     0.024000000
C    -0.001000000    -0.186000000     0.356000000
C     1.102000000     0.603000000     1.075000000
H     1.856000000     0.896000000     0.342000000
H     0.714000000     1.454000000     1.640000000
H     1.596000000    -0.142000000     1.702000000
C    -1.312000000     0.348000000     0.238000000
H    -1.452000000     1.401000000     0.466000000
C    -2.298000000    -0.487000000    -0.263000000
H    -3.319000000    -0.133000000    -0.386000000
C    -2.077000000    -1.841000000    -0.498000000
C    -3.076000000    -2.775000000    -1.011000000
O    -4.240000000    -2.380000000    -0.976000000
O    -2.838000000    -3.949000000    -1.207000000
