17
-87.54564
C    -1.852000000    -2.225000000    -0.147000000
H    -1.841000000    -3.296000000    -0.331000000
C    -0.657000000    -1.633000000     0.210000000
H     0.210000000    -2.282000000     0.308000000
C    -0.567000000    -0.255000000     0.259000000
C     0.685000000     0.455000000     0.655000000
H     1.236000000    -0.232000000     1.300000000
H     1.382000000     0.685000000    -0.153000000
H     0.646000000     1.419000000     1.167000000
C    -1.730000000     0.547000000    -0.158000000
H    -1.639000000     1.630000000    -0.171000000
C    -2.919000000    -0.118000000    -0.540000000
H    -3.806000000     0.486000000    -0.707000000
C    -3.007000000    -1.493000000    -0.435000000
C    -4.331000000    -2.142000000    -0.747000000
O    -5.209000000    -1.456000000    -1.226000000
O    -4.495000000    -3.320000000    -0.788000000
