17
-90.32636
C    -0.405000000    -3.142000000    -0.783000000
H    -0.069000000    -4.081000000    -1.215000000
C     0.506000000    -2.094000000    -0.555000000
H     1.502000000    -2.293000000    -0.944000000
C     0.173000000    -0.933000000     0.090000000
C     1.086000000     0.208000000     0.345000000
H     0.912000000     0.669000000     1.320000000
H     2.129000000    -0.108000000     0.295000000
H     0.957000000     0.891000000    -0.498000000
C    -1.188000000    -0.781000000     0.440000000
H    -1.469000000     0.201000000     0.812000000
C    -2.075000000    -1.876000000     0.260000000
H    -3.134000000    -1.798000000     0.492000000
C    -1.749000000    -3.039000000    -0.401000000
C    -2.708000000    -4.115000000    -0.676000000
O    -3.820000000    -4.116000000    -0.232000000
O    -2.375000000    -5.091000000    -1.303000000
