17
-98.80170
C    -1.136000000    -2.533000000    -0.509000000
H    -0.886000000    -3.586000000    -0.608000000
C    -0.130000000    -1.689000000    -0.052000000
H     0.888000000    -2.017000000     0.143000000
C    -0.388000000    -0.343000000     0.206000000
C     0.718000000     0.573000000     0.811000000
H     1.655000000     0.372000000     0.287000000
H     0.409000000     1.616000000     0.718000000
H     1.005000000     0.322000000     1.834000000
C    -1.632000000     0.230000000    -0.070000000
H    -1.866000000     1.283000000     0.061000000
C    -2.664000000    -0.648000000    -0.479000000
H    -3.625000000    -0.150000000    -0.576000000
C    -2.446000000    -1.987000000    -0.757000000
C    -3.574000000    -2.894000000    -1.198000000
O    -4.706000000    -2.500000000    -1.143000000
O    -3.308000000    -4.035000000    -1.592000000
