17
-82.28506
C    -0.577000000    -2.634000000    -1.648000000
H    -0.329000000    -3.134000000    -2.580000000
C     0.288000000    -1.720000000    -1.126000000
H     1.274000000    -1.660000000    -1.579000000
C    -0.087000000    -1.003000000    -0.028000000
C     0.861000000     0.004000000     0.567000000
H     1.225000000    -0.292000000     1.553000000
H     1.683000000     0.213000000    -0.121000000
H     0.277000000     0.926000000     0.567000000
C    -1.359000000    -1.179000000     0.469000000
H    -1.711000000    -0.361000000     1.093000000
C    -2.277000000    -2.093000000    -0.097000000
H    -3.310000000    -2.095000000     0.244000000
C    -1.852000000    -2.860000000    -1.144000000
C    -2.871000000    -3.729000000    -1.869000000
O    -4.061000000    -3.674000000    -1.621000000
O    -2.601000000    -4.428000000    -2.770000000
