17
-89.41669
C    -1.134000000    -2.100000000    -0.687000000
H    -1.120000000    -3.083000000    -1.150000000
C     0.009000000    -1.478000000    -0.259000000
H     0.920000000    -2.045000000    -0.427000000
C    -0.016000000    -0.134000000     0.257000000
C     1.212000000     0.609000000     0.787000000
H     1.661000000     1.413000000     0.199000000
H     0.884000000     0.953000000     1.770000000
H     1.909000000    -0.215000000     0.955000000
C    -1.204000000     0.563000000     0.170000000
H    -1.210000000     1.599000000     0.497000000
C    -2.387000000    -0.123000000    -0.151000000
H    -3.334000000     0.409000000    -0.110000000
C    -2.358000000    -1.467000000    -0.557000000
C    -3.694000000    -2.117000000    -0.994000000
O    -4.746000000    -1.558000000    -0.717000000
O    -3.759000000    -3.237000000    -1.377000000
