17
-90.80040
C    -2.188000000    -2.091000000    -0.383000000
H    -2.308000000    -3.171000000    -0.403000000
C    -0.904000000    -1.526000000    -0.272000000
H    -0.089000000    -2.229000000    -0.126000000
C    -0.700000000    -0.138000000    -0.168000000
C     0.621000000     0.477000000     0.179000000
H     1.046000000     0.911000000    -0.729000000
H     0.476000000     1.265000000     0.922000000
H     1.286000000    -0.301000000     0.560000000
C    -1.831000000     0.669000000    -0.253000000
H    -1.805000000     1.752000000    -0.168000000
C    -3.066000000     0.079000000    -0.477000000
H    -3.960000000     0.696000000    -0.513000000
C    -3.289000000    -1.274000000    -0.607000000
C    -4.776000000    -1.754000000    -0.811000000
O    -5.671000000    -1.045000000    -1.147000000
O    -5.052000000    -2.944000000    -0.793000000
