17
-95.24207
C    -1.347000000    -2.173000000    -1.326000000
H    -1.253000000    -3.134000000    -1.824000000
C    -0.223000000    -1.559000000    -0.774000000
H     0.764000000    -2.001000000    -0.890000000
C    -0.402000000    -0.313000000    -0.183000000
C     0.767000000     0.376000000     0.406000000
H     1.625000000    -0.275000000     0.585000000
H     1.156000000     1.084000000    -0.329000000
H     0.424000000     0.815000000     1.345000000
C    -1.607000000     0.299000000    -0.082000000
H    -1.714000000     1.179000000     0.547000000
C    -2.724000000    -0.385000000    -0.544000000
H    -3.748000000    -0.053000000    -0.396000000
C    -2.625000000    -1.604000000    -1.170000000
C    -3.835000000    -2.216000000    -1.900000000
O    -4.918000000    -1.677000000    -1.721000000
O    -3.775000000    -3.071000000    -2.788000000
