17
-94.58746
C    -1.370000000    -2.291000000    -1.074000000
H    -1.128000000    -3.146000000    -1.700000000
C    -0.267000000    -1.534000000    -0.502000000
H     0.752000000    -1.881000000    -0.655000000
C    -0.495000000    -0.332000000     0.072000000
C     0.736000000     0.374000000     0.524000000
H     1.650000000    -0.199000000     0.696000000
H     0.937000000     1.290000000    -0.037000000
H     0.429000000     0.664000000     1.531000000
C    -1.829000000     0.164000000     0.149000000
H    -1.999000000     1.114000000     0.651000000
C    -2.861000000    -0.499000000    -0.453000000
H    -3.818000000     0.012000000    -0.522000000
C    -2.682000000    -1.745000000    -1.085000000
C    -3.753000000    -2.443000000    -1.870000000
O    -4.880000000    -1.957000000    -1.988000000
O    -3.495000000    -3.518000000    -2.445000000
