17
-84.62626
C    -1.298000000    -2.019000000    -0.877000000
H    -1.216000000    -3.064000000    -1.166000000
C    -0.151000000    -1.245000000    -0.545000000
H     0.867000000    -1.625000000    -0.577000000
C    -0.271000000    -0.039000000     0.063000000
C     0.923000000     0.708000000     0.532000000
H     0.775000000     1.482000000     1.287000000
H     1.592000000     0.054000000     1.095000000
H     1.362000000     1.339000000    -0.243000000
C    -1.555000000     0.405000000     0.293000000
H    -1.783000000     1.373000000     0.732000000
C    -2.655000000    -0.257000000    -0.192000000
H    -3.673000000     0.098000000    -0.057000000
C    -2.564000000    -1.481000000    -0.794000000
C    -3.729000000    -2.300000000    -1.125000000
O    -4.821000000    -1.802000000    -1.007000000
O    -3.588000000    -3.293000000    -1.789000000
