17
-91.50074
C    -1.826000000    -2.457000000    -1.632000000
H    -1.658000000    -3.312000000    -2.282000000
C    -0.781000000    -1.579000000    -1.345000000
H     0.236000000    -1.754000000    -1.686000000
C    -1.017000000    -0.460000000    -0.589000000
C     0.142000000     0.454000000    -0.453000000
H     0.283000000     0.993000000    -1.392000000
H    -0.125000000     1.140000000     0.354000000
H     1.063000000    -0.079000000    -0.206000000
C    -2.273000000    -0.275000000     0.036000000
H    -2.488000000     0.532000000     0.732000000
C    -3.249000000    -1.221000000    -0.108000000
H    -4.209000000    -1.070000000     0.379000000
C    -3.105000000    -2.302000000    -1.027000000
C    -4.175000000    -3.256000000    -1.383000000
O    -5.254000000    -3.101000000    -0.924000000
O    -3.986000000    -4.113000000    -2.210000000
