17
-88.08579
C     1.352000000    -2.372000000    -0.161000000
H     1.416000000    -3.456000000    -0.110000000
C     0.219000000    -1.679000000     0.234000000
H    -0.701000000    -2.242000000     0.370000000
C     0.143000000    -0.269000000     0.162000000
C    -1.030000000     0.582000000     0.562000000
H    -1.216000000     1.563000000     0.120000000
H    -1.935000000    -0.002000000     0.381000000
H    -1.007000000     0.621000000     1.653000000
C     1.311000000     0.406000000    -0.201000000
H     1.317000000     1.493000000    -0.181000000
C     2.439000000    -0.275000000    -0.591000000
H     3.286000000     0.318000000    -0.928000000
C     2.461000000    -1.674000000    -0.541000000
C     3.685000000    -2.425000000    -0.920000000
O     4.758000000    -1.867000000    -1.047000000
O     3.709000000    -3.605000000    -1.012000000
