17
-90.51988
C    -1.191000000    -1.964000000    -0.940000000
H    -1.309000000    -2.972000000    -1.329000000
C     0.034000000    -1.426000000    -0.530000000
H     0.943000000    -1.988000000    -0.732000000
C    -0.006000000    -0.140000000     0.070000000
C     1.287000000     0.412000000     0.717000000
H     1.497000000     1.468000000     0.535000000
H     1.254000000     0.093000000     1.761000000
H     2.133000000    -0.130000000     0.292000000
C    -1.244000000     0.486000000     0.215000000
H    -1.203000000     1.503000000     0.597000000
C    -2.437000000    -0.110000000     0.043000000
H    -3.362000000     0.413000000     0.270000000
C    -2.383000000    -1.356000000    -0.578000000
C    -3.677000000    -2.113000000    -0.884000000
O    -4.687000000    -1.450000000    -1.121000000
O    -3.679000000    -3.281000000    -1.133000000
