17
-93.68119
C    -0.680000000    -1.989000000    -1.353000000
H    -0.387000000    -2.897000000    -1.874000000
C     0.274000000    -1.202000000    -0.763000000
H     1.313000000    -1.488000000    -0.904000000
C    -0.092000000    -0.134000000    -0.015000000
C     0.923000000     0.628000000     0.863000000
H     0.551000000     0.649000000     1.889000000
H     1.883000000     0.109000000     0.824000000
H     1.075000000     1.640000000     0.482000000
C    -1.456000000     0.240000000     0.044000000
H    -1.741000000     1.164000000     0.540000000
C    -2.419000000    -0.629000000    -0.436000000
H    -3.490000000    -0.464000000    -0.352000000
C    -2.063000000    -1.720000000    -1.199000000
C    -3.072000000    -2.776000000    -1.716000000
O    -4.276000000    -2.719000000    -1.518000000
O    -2.718000000    -3.652000000    -2.489000000
