17
-92.30849
C    -0.882000000    -2.319000000    -1.678000000
H    -0.534000000    -3.062000000    -2.391000000
C     0.048000000    -1.438000000    -1.073000000
H     1.056000000    -1.386000000    -1.475000000
C    -0.426000000    -0.646000000    -0.015000000
C     0.548000000     0.305000000     0.706000000
H    -0.083000000     0.924000000     1.346000000
H     1.257000000    -0.235000000     1.337000000
H     1.186000000     0.790000000    -0.036000000
C    -1.762000000    -0.686000000     0.417000000
H    -2.172000000    -0.170000000     1.281000000
C    -2.606000000    -1.619000000    -0.233000000
H    -3.651000000    -1.739000000     0.042000000
C    -2.145000000    -2.455000000    -1.244000000
C    -3.114000000    -3.382000000    -1.868000000
O    -4.312000000    -3.258000000    -1.656000000
O    -2.745000000    -4.057000000    -2.788000000
