17
-93.57306
C     1.049000000    -2.590000000    -0.565000000
H     0.679000000    -3.565000000    -0.870000000
C     0.164000000    -1.565000000    -0.172000000
H    -0.877000000    -1.868000000    -0.240000000
C     0.634000000    -0.327000000     0.224000000
C    -0.409000000     0.690000000     0.719000000
H    -0.582000000     0.758000000     1.796000000
H    -0.157000000     1.720000000     0.460000000
H    -1.379000000     0.498000000     0.255000000
C     2.029000000    -0.112000000     0.109000000
H     2.484000000     0.869000000     0.214000000
C     2.888000000    -1.052000000    -0.428000000
H     3.950000000    -0.876000000    -0.576000000
C     2.405000000    -2.360000000    -0.598000000
C     3.290000000    -3.463000000    -1.007000000
O     4.473000000    -3.188000000    -1.222000000
O     2.918000000    -4.589000000    -1.283000000
