17
-89.39046
C    -2.240000000    -2.538000000    -0.834000000
H    -2.334000000    -3.526000000    -1.278000000
C    -1.120000000    -1.726000000    -0.692000000
H    -0.157000000    -2.073000000    -1.058000000
C    -1.208000000    -0.434000000    -0.063000000
C    -0.005000000     0.351000000     0.177000000
H     0.849000000    -0.330000000     0.191000000
H     0.220000000     0.969000000    -0.695000000
H    -0.115000000     0.888000000     1.121000000
C    -2.498000000     0.106000000     0.298000000
H    -2.614000000     1.088000000     0.748000000
C    -3.537000000    -0.724000000     0.141000000
H    -4.517000000    -0.411000000     0.492000000
C    -3.447000000    -2.028000000    -0.313000000
C    -4.749000000    -2.765000000    -0.440000000
O    -5.825000000    -2.267000000    -0.156000000
O    -4.815000000    -3.811000000    -1.080000000
