17
-97.10516
C    -1.189000000    -2.224000000    -1.924000000
H    -1.196000000    -2.732000000    -2.886000000
C    -0.147000000    -1.232000000    -1.716000000
H     0.578000000    -1.004000000    -2.494000000
C    -0.140000000    -0.490000000    -0.547000000
C     0.986000000     0.378000000    -0.155000000
H     1.881000000    -0.191000000    -0.418000000
H     0.973000000     1.268000000    -0.787000000
H     0.966000000     0.680000000     0.894000000
C    -1.147000000    -0.651000000     0.364000000
H    -1.233000000     0.078000000     1.166000000
C    -2.121000000    -1.668000000     0.179000000
H    -2.951000000    -1.723000000     0.878000000
C    -2.179000000    -2.412000000    -1.009000000
C    -3.179000000    -3.490000000    -1.255000000
O    -3.909000000    -3.836000000    -0.328000000
O    -3.320000000    -3.947000000    -2.392000000
