17
-93.47645
C    -1.732000000    -2.214000000    -0.744000000
H    -1.780000000    -3.179000000    -1.243000000
C    -0.582000000    -1.425000000    -0.774000000
H     0.308000000    -1.725000000    -1.321000000
C    -0.428000000    -0.278000000    -0.039000000
C     0.866000000     0.545000000     0.059000000
H     1.750000000    -0.097000000     0.067000000
H     0.847000000     1.363000000    -0.663000000
H     0.939000000     0.935000000     1.076000000
C    -1.539000000     0.267000000     0.604000000
H    -1.407000000     1.223000000     1.106000000
C    -2.761000000    -0.398000000     0.503000000
H    -3.653000000    -0.112000000     1.055000000
C    -2.877000000    -1.670000000    -0.146000000
C    -4.167000000    -2.374000000    -0.196000000
O    -5.157000000    -1.883000000     0.272000000
O    -4.180000000    -3.378000000    -0.861000000
