17
-97.04335
C    -2.491000000    -2.396000000    -1.876000000
H    -2.643000000    -2.847000000    -2.853000000
C    -1.323000000    -1.686000000    -1.594000000
H    -0.559000000    -1.556000000    -2.357000000
C    -1.174000000    -1.177000000    -0.324000000
C    -0.001000000    -0.222000000    -0.003000000
H     0.665000000    -0.510000000     0.813000000
H     0.711000000    -0.014000000    -0.805000000
H    -0.413000000     0.726000000     0.350000000
C    -2.250000000    -1.242000000     0.630000000
H    -2.167000000    -0.798000000     1.618000000
C    -3.401000000    -1.990000000     0.286000000
H    -4.210000000    -2.010000000     1.012000000
C    -3.533000000    -2.601000000    -0.914000000
C    -4.789000000    -3.303000000    -1.308000000
O    -5.738000000    -3.342000000    -0.566000000
O    -4.880000000    -3.665000000    -2.503000000
