17
-87.59756
C    -2.249000000    -1.230000000    -0.855000000
H    -3.083000000    -1.256000000    -1.552000000
C    -1.284000000    -0.230000000    -0.900000000
H    -1.279000000     0.474000000    -1.728000000
C    -0.306000000    -0.240000000     0.018000000
C     0.721000000     0.727000000    -0.080000000
H     1.032000000     1.049000000    -1.076000000
H     0.560000000     1.546000000     0.625000000
H     1.660000000     0.277000000     0.249000000
C    -0.371000000    -1.141000000     1.120000000
H     0.494000000    -1.213000000     1.774000000
C    -1.313000000    -2.147000000     1.126000000
H    -1.219000000    -2.922000000     1.883000000
C    -2.182000000    -2.247000000     0.066000000
C    -3.164000000    -3.314000000     0.033000000
O    -3.331000000    -4.042000000     0.992000000
O    -3.805000000    -3.539000000    -1.012000000
