17
-82.78033
C    -1.495000000    -2.633000000    -0.705000000
H    -1.451000000    -3.453000000    -1.418000000
C    -0.510000000    -1.640000000    -0.586000000
H     0.310000000    -1.708000000    -1.296000000
C    -0.578000000    -0.621000000     0.331000000
C     0.521000000     0.419000000     0.335000000
H     0.437000000     1.102000000     1.182000000
H     1.506000000    -0.050000000     0.312000000
H     0.417000000     1.019000000    -0.572000000
C    -1.691000000    -0.490000000     1.172000000
H    -1.751000000     0.364000000     1.842000000
C    -2.672000000    -1.444000000     1.087000000
H    -3.561000000    -1.421000000     1.712000000
C    -2.614000000    -2.440000000     0.172000000
C    -3.738000000    -3.427000000     0.132000000
O    -4.699000000    -3.321000000     0.807000000
O    -3.852000000    -4.329000000    -0.663000000
