17
-100.66273
C    -0.894000000    -2.369000000    -1.924000000
H    -0.632000000    -2.808000000    -2.883000000
C     0.045000000    -1.612000000    -1.294000000
H     1.024000000    -1.476000000    -1.746000000
C    -0.147000000    -0.950000000    -0.104000000
C     0.837000000    -0.038000000     0.536000000
H     0.973000000    -0.508000000     1.512000000
H     1.762000000     0.068000000    -0.036000000
H     0.446000000     0.959000000     0.748000000
C    -1.439000000    -1.075000000     0.455000000
H    -1.670000000    -0.538000000     1.371000000
C    -2.397000000    -1.879000000    -0.130000000
H    -3.368000000    -1.928000000     0.355000000
C    -2.129000000    -2.523000000    -1.342000000
C    -3.216000000    -3.341000000    -1.945000000
O    -4.258000000    -3.548000000    -1.282000000
O    -3.086000000    -3.780000000    -3.086000000
