17
-92.24458
C    -2.005000000     0.020000000    -1.700000000
H    -2.338000000     0.222000000    -2.715000000
C    -0.796000000     0.520000000    -1.260000000
H    -0.210000000     1.154000000    -1.921000000
C    -0.380000000     0.258000000     0.006000000
C     0.947000000     0.721000000     0.570000000
H     1.516000000    -0.185000000     0.790000000
H     1.527000000     1.305000000    -0.148000000
H     0.734000000     1.232000000     1.511000000
C    -1.106000000    -0.586000000     0.846000000
H    -0.927000000    -0.789000000     1.899000000
C    -2.377000000    -1.078000000     0.424000000
H    -2.924000000    -1.706000000     1.122000000
C    -2.762000000    -0.833000000    -0.910000000
C    -3.962000000    -1.533000000    -1.500000000
O    -4.581000000    -2.370000000    -0.826000000
O    -4.403000000    -1.095000000    -2.489000000
