17
-96.00582
C     0.990000000    -2.472000000    -0.062000000
H     0.886000000    -3.552000000    -0.134000000
C    -0.144000000    -1.635000000     0.108000000
H    -1.102000000    -2.143000000     0.182000000
C     0.045000000    -0.223000000     0.266000000
C    -1.177000000     0.739000000     0.579000000
H    -0.946000000     1.231000000     1.527000000
H    -1.410000000     1.440000000    -0.226000000
H    -2.016000000     0.046000000     0.672000000
C     1.308000000     0.262000000     0.218000000
H     1.398000000     1.343000000     0.291000000
C     2.443000000    -0.599000000     0.131000000
H     3.444000000    -0.177000000     0.159000000
C     2.263000000    -1.946000000    -0.079000000
C     3.474000000    -2.902000000    -0.097000000
O     4.650000000    -2.459000000    -0.051000000
O     3.280000000    -4.085000000    -0.134000000
