17
-93.72987
C    -2.918000000    -0.219000000    -1.090000000
H    -3.606000000     0.134000000    -1.854000000
C    -1.605000000     0.316000000    -0.974000000
H    -1.261000000     1.080000000    -1.666000000
C    -0.793000000    -0.188000000     0.062000000
C     0.558000000     0.477000000     0.438000000
H     0.584000000     1.520000000     0.116000000
H     0.578000000     0.502000000     1.530000000
H     1.297000000    -0.123000000    -0.098000000
C    -1.171000000    -1.254000000     0.885000000
H    -0.453000000    -1.701000000     1.568000000
C    -2.502000000    -1.716000000     0.712000000
H    -2.877000000    -2.580000000     1.255000000
C    -3.384000000    -1.205000000    -0.218000000
C    -4.756000000    -1.902000000    -0.520000000
O    -5.211000000    -2.646000000     0.283000000
O    -5.318000000    -1.665000000    -1.554000000
