17
-96.15209
C    -1.644000000    -1.035000000    -1.396000000
H    -2.261000000    -0.829000000    -2.266000000
C    -0.906000000    -0.039000000    -0.922000000
H    -0.872000000     0.932000000    -1.411000000
C    -0.048000000    -0.297000000     0.145000000
C     0.900000000     0.810000000     0.659000000
H     0.694000000     1.252000000     1.636000000
H     1.898000000     0.367000000     0.662000000
H     0.975000000     1.674000000    -0.004000000
C    -0.014000000    -1.522000000     0.782000000
H     0.455000000    -1.622000000     1.757000000
C    -0.836000000    -2.522000000     0.307000000
H    -0.852000000    -3.506000000     0.769000000
C    -1.541000000    -2.351000000    -0.854000000
C    -2.300000000    -3.452000000    -1.484000000
O    -2.429000000    -4.527000000    -0.927000000
O    -2.688000000    -3.219000000    -2.646000000
