17
-99.10538
C    -2.400000000    -0.569000000    -1.570000000
H    -2.869000000    -0.346000000    -2.525000000
C    -1.099000000    -0.147000000    -1.258000000
H    -0.455000000     0.383000000    -1.955000000
C    -0.535000000    -0.336000000    -0.015000000
C     0.857000000     0.181000000     0.284000000
H     0.863000000     1.197000000    -0.116000000
H     1.046000000     0.245000000     1.358000000
H     1.660000000    -0.360000000    -0.221000000
C    -1.252000000    -0.918000000     0.998000000
H    -0.793000000    -1.159000000     1.953000000
C    -2.554000000    -1.437000000     0.711000000
H    -3.117000000    -2.005000000     1.447000000
C    -3.141000000    -1.232000000    -0.545000000
C    -4.544000000    -1.762000000    -0.649000000
O    -5.048000000    -2.243000000     0.367000000
O    -5.152000000    -1.822000000    -1.713000000
