17
-96.55181
C    -1.898000000    -0.868000000    -1.809000000
H    -2.481000000    -0.530000000    -2.662000000
C    -0.893000000    -0.013000000    -1.369000000
H    -0.564000000     0.805000000    -2.004000000
C    -0.343000000    -0.122000000    -0.096000000
C     0.809000000     0.666000000     0.372000000
H     0.914000000     1.546000000    -0.265000000
H     0.835000000     0.743000000     1.461000000
H     1.717000000     0.068000000     0.276000000
C    -0.779000000    -1.221000000     0.690000000
H    -0.281000000    -1.462000000     1.625000000
C    -1.770000000    -2.088000000     0.245000000
H    -2.091000000    -2.865000000     0.935000000
C    -2.377000000    -1.878000000    -0.972000000
C    -3.566000000    -2.729000000    -1.410000000
O    -4.082000000    -3.510000000    -0.631000000
O    -3.890000000    -2.707000000    -2.590000000
