17
-99.17985
C    -1.749000000    -0.421000000    -1.570000000
H    -2.353000000    -0.102000000    -2.416000000
C    -0.707000000     0.405000000    -1.223000000
H    -0.534000000     1.340000000    -1.750000000
C     0.104000000     0.097000000    -0.110000000
C     1.138000000     1.110000000     0.276000000
H     0.877000000     2.115000000    -0.062000000
H     1.215000000     1.137000000     1.365000000
H     2.064000000     0.712000000    -0.145000000
C    -0.086000000    -1.079000000     0.619000000
H     0.532000000    -1.336000000     1.476000000
C    -1.208000000    -1.857000000     0.241000000
H    -1.443000000    -2.722000000     0.855000000
C    -1.966000000    -1.584000000    -0.911000000
C    -3.083000000    -2.498000000    -1.328000000
O    -3.317000000    -3.521000000    -0.692000000
O    -3.680000000    -2.263000000    -2.357000000
