17
-96.04406
C    -0.849000000    -0.916000000    -2.326000000
H    -1.288000000    -0.631000000    -3.278000000
C    -0.246000000     0.040000000    -1.520000000
H    -0.040000000     1.034000000    -1.909000000
C     0.096000000    -0.317000000    -0.230000000
C     0.729000000     0.746000000     0.577000000
H    -0.005000000     1.255000000     1.206000000
H     1.477000000     0.307000000     1.240000000
H     1.194000000     1.526000000    -0.030000000
C    -0.133000000    -1.560000000     0.234000000
H     0.233000000    -1.809000000     1.227000000
C    -0.766000000    -2.589000000    -0.573000000
H    -0.827000000    -3.662000000    -0.407000000
C    -1.158000000    -2.177000000    -1.890000000
C    -1.859000000    -3.172000000    -2.775000000
O    -1.998000000    -4.350000000    -2.474000000
O    -2.356000000    -2.738000000    -3.854000000
