17
-93.78289
C    -1.027000000    -0.626000000    -2.553000000
H    -1.308000000    -0.346000000    -3.565000000
C    -0.322000000     0.293000000    -1.855000000
H     0.019000000     1.193000000    -2.360000000
C     0.091000000     0.103000000    -0.540000000
C     0.853000000     1.124000000     0.301000000
H     1.925000000     0.922000000     0.241000000
H     0.712000000     2.135000000    -0.085000000
H     0.516000000     1.084000000     1.339000000
C    -0.497000000    -0.997000000     0.133000000
H    -0.234000000    -1.111000000     1.182000000
C    -1.282000000    -1.931000000    -0.562000000
H    -1.753000000    -2.748000000    -0.021000000
C    -1.544000000    -1.760000000    -1.906000000
C    -2.404000000    -2.736000000    -2.745000000
O    -2.677000000    -3.852000000    -2.332000000
O    -2.821000000    -2.474000000    -3.849000000
