17
-98.35578
C    -2.625000000    -0.578000000    -1.221000000
H    -3.330000000    -0.270000000    -1.990000000
C    -1.429000000     0.131000000    -1.105000000
H    -1.100000000     0.906000000    -1.792000000
C    -0.591000000    -0.241000000    -0.107000000
C     0.621000000     0.662000000     0.107000000
H     1.034000000     0.523000000     1.108000000
H     1.428000000     0.404000000    -0.582000000
H     0.351000000     1.698000000    -0.107000000
C    -0.773000000    -1.277000000     0.779000000
H    -0.057000000    -1.565000000     1.545000000
C    -1.938000000    -2.056000000     0.555000000
H    -2.185000000    -2.861000000     1.242000000
C    -2.880000000    -1.662000000    -0.436000000
C    -4.133000000    -2.469000000    -0.570000000
O    -4.443000000    -3.350000000     0.236000000
O    -4.946000000    -2.141000000    -1.448000000
