17
-88.68904
C    -2.312000000    -1.271000000    -1.238000000
H    -3.025000000    -1.338000000    -2.055000000
C    -1.397000000    -0.157000000    -1.087000000
H    -1.254000000     0.656000000    -1.794000000
C    -0.421000000    -0.186000000    -0.074000000
C     0.543000000     0.940000000     0.197000000
H     0.028000000     1.884000000     0.010000000
H     1.000000000     1.003000000     1.187000000
H     1.368000000     0.794000000    -0.503000000
C    -0.303000000    -1.241000000     0.787000000
H     0.379000000    -1.249000000     1.633000000
C    -1.271000000    -2.311000000     0.695000000
H    -1.189000000    -3.135000000     1.399000000
C    -2.124000000    -2.344000000    -0.422000000
C    -2.940000000    -3.586000000    -0.627000000
O    -3.511000000    -4.127000000     0.274000000
O    -3.061000000    -4.076000000    -1.745000000
