17
-96.11098
C    -2.494000000    -0.576000000    -1.760000000
H    -2.937000000    -0.278000000    -2.707000000
C    -1.255000000    -0.082000000    -1.337000000
H    -0.772000000     0.742000000    -1.856000000
C    -0.710000000    -0.592000000    -0.154000000
C     0.635000000     0.064000000     0.256000000
H     0.683000000     1.148000000     0.135000000
H     0.976000000    -0.332000000     1.215000000
H     1.382000000    -0.263000000    -0.470000000
C    -1.357000000    -1.525000000     0.645000000
H    -0.924000000    -1.872000000     1.579000000
C    -2.579000000    -2.048000000     0.173000000
H    -3.134000000    -2.812000000     0.711000000
C    -3.119000000    -1.550000000    -1.025000000
C    -4.406000000    -2.161000000    -1.564000000
O    -4.941000000    -3.094000000    -0.965000000
O    -4.878000000    -1.726000000    -2.545000000
