17
-92.27247
C     0.669000000    -2.562000000    -0.645000000
H     0.266000000    -3.528000000    -0.936000000
C    -0.157000000    -1.503000000    -0.327000000
H    -1.208000000    -1.775000000    -0.377000000
C     0.272000000    -0.272000000     0.087000000
C    -0.711000000     0.844000000     0.510000000
H    -1.563000000     0.423000000     1.047000000
H    -0.279000000     1.603000000     1.165000000
H    -1.115000000     1.331000000    -0.380000000
C     1.652000000    -0.138000000     0.288000000
H     1.962000000     0.768000000     0.803000000
C     2.570000000    -1.147000000    -0.020000000
H     3.650000000    -1.057000000     0.064000000
C     2.075000000    -2.393000000    -0.475000000
C     3.003000000    -3.512000000    -0.947000000
O     4.149000000    -3.511000000    -0.535000000
O     2.600000000    -4.351000000    -1.645000000
