17
-88.98082
C    -1.214000000    -1.424000000    -1.237000000
H    -1.953000000    -1.593000000    -2.017000000
C    -0.806000000    -0.122000000    -0.891000000
H    -1.305000000     0.634000000    -1.493000000
C    -0.024000000     0.054000000     0.215000000
C     0.472000000     1.470000000     0.496000000
H     1.055000000     1.964000000    -0.284000000
H    -0.414000000     2.107000000     0.536000000
H     1.105000000     1.506000000     1.385000000
C     0.462000000    -1.019000000     0.937000000
H     0.893000000    -0.946000000     1.932000000
C     0.055000000    -2.326000000     0.639000000
H     0.290000000    -3.203000000     1.237000000
C    -0.800000000    -2.507000000    -0.474000000
C    -1.272000000    -3.907000000    -0.873000000
O    -0.898000000    -4.945000000    -0.291000000
O    -2.254000000    -4.097000000    -1.578000000
