17
-98.70671
C    -2.656000000    -0.759000000    -1.422000000
H    -3.214000000    -0.577000000    -2.337000000
C    -1.532000000     0.053000000    -1.135000000
H    -1.345000000     0.903000000    -1.786000000
C    -0.803000000    -0.151000000     0.038000000
C     0.327000000     0.757000000     0.378000000
H     0.991000000     0.378000000     1.157000000
H     0.938000000     1.012000000    -0.491000000
H    -0.009000000     1.704000000     0.807000000
C    -1.218000000    -1.078000000     0.941000000
H    -0.647000000    -1.203000000     1.857000000
C    -2.348000000    -1.879000000     0.687000000
H    -2.501000000    -2.686000000     1.399000000
C    -3.126000000    -1.667000000    -0.491000000
C    -4.438000000    -2.539000000    -0.738000000
O    -4.853000000    -3.207000000     0.195000000
O    -4.824000000    -2.666000000    -1.873000000
