17
-96.62732
C    -1.498000000    -2.624000000    -1.268000000
H    -2.383000000    -2.918000000    -1.827000000
C    -1.376000000    -1.275000000    -1.008000000
H    -2.175000000    -0.613000000    -1.330000000
C    -0.332000000    -0.759000000    -0.233000000
C    -0.348000000     0.671000000     0.271000000
H     0.393000000     0.681000000     1.073000000
H    -0.050000000     1.467000000    -0.415000000
H    -1.338000000     0.844000000     0.699000000
C     0.681000000    -1.662000000     0.202000000
H     1.447000000    -1.397000000     0.926000000
C     0.601000000    -3.037000000    -0.213000000
H     1.273000000    -3.840000000     0.078000000
C    -0.460000000    -3.511000000    -0.980000000
C    -0.529000000    -4.974000000    -1.346000000
O     0.368000000    -5.770000000    -1.079000000
O    -1.528000000    -5.363000000    -1.909000000
