17
-98.43226
C     0.156000000    -3.120000000    -1.949000000
H    -0.079000000    -3.213000000    -3.006000000
C     0.328000000    -1.827000000    -1.462000000
H     0.131000000    -1.025000000    -2.168000000
C     0.491000000    -1.590000000    -0.088000000
C     0.409000000    -0.171000000     0.439000000
H     1.103000000     0.396000000    -0.185000000
H    -0.643000000     0.110000000     0.527000000
H     0.882000000    -0.102000000     1.421000000
C     0.687000000    -2.710000000     0.727000000
H     0.979000000    -2.546000000     1.761000000
C     0.538000000    -4.029000000     0.246000000
H     0.580000000    -4.846000000     0.962000000
C     0.280000000    -4.246000000    -1.083000000
C     0.052000000    -5.726000000    -1.589000000
O     0.408000000    -6.624000000    -0.843000000
O    -0.228000000    -5.936000000    -2.764000000
