17
-88.55266
C    -0.521000000    -2.567000000    -2.285000000
H    -0.888000000    -2.866000000    -3.264000000
C    -0.397000000    -1.204000000    -1.958000000
H    -0.689000000    -0.406000000    -2.635000000
C     0.123000000    -0.895000000    -0.714000000
C     0.287000000     0.541000000    -0.262000000
H     0.255000000     1.111000000    -1.192000000
H    -0.446000000     0.798000000     0.506000000
H     1.313000000     0.612000000     0.103000000
C     0.539000000    -1.864000000     0.169000000
H     1.047000000    -1.651000000     1.106000000
C     0.474000000    -3.236000000    -0.210000000
H     0.973000000    -3.943000000     0.447000000
C    -0.114000000    -3.629000000    -1.426000000
C    -0.309000000    -5.046000000    -1.808000000
O    -0.063000000    -5.823000000    -0.883000000
O    -1.192000000    -5.347000000    -2.617000000
