17
-95.82280
C     1.240000000    -2.525000000     0.156000000
H     1.181000000    -3.607000000     0.231000000
C     0.100000000    -1.726000000     0.149000000
H    -0.923000000    -2.091000000     0.103000000
C     0.266000000    -0.310000000     0.260000000
C    -0.862000000     0.649000000     0.502000000
H    -1.620000000     0.925000000    -0.233000000
H    -1.411000000     0.318000000     1.386000000
H    -0.450000000     1.584000000     0.889000000
C     1.561000000     0.204000000     0.371000000
H     1.790000000     1.251000000     0.553000000
C     2.663000000    -0.601000000     0.310000000
H     3.647000000    -0.141000000     0.353000000
C     2.523000000    -2.008000000     0.240000000
C     3.792000000    -2.949000000     0.322000000
O     4.857000000    -2.451000000     0.568000000
O     3.660000000    -4.128000000     0.083000000
