17
-98.29628
C    -0.352000000    -2.319000000    -1.683000000
H    -0.812000000    -2.699000000    -2.592000000
C    -0.483000000    -0.965000000    -1.329000000
H    -1.185000000    -0.369000000    -1.907000000
C     0.314000000    -0.419000000    -0.351000000
C     0.199000000     1.042000000    -0.077000000
H    -0.859000000     1.236000000     0.109000000
H     0.789000000     1.491000000     0.726000000
H     0.519000000     1.573000000    -0.976000000
C     1.148000000    -1.235000000     0.387000000
H     1.714000000    -0.739000000     1.171000000
C     1.241000000    -2.586000000     0.096000000
H     1.979000000    -3.293000000     0.464000000
C     0.553000000    -3.154000000    -1.013000000
C     0.770000000    -4.637000000    -1.416000000
O     1.443000000    -5.388000000    -0.698000000
O     0.180000000    -5.105000000    -2.375000000
