17
-93.64333
C     0.369000000    -3.077000000    -1.854000000
H     0.170000000    -3.643000000    -2.760000000
C     0.023000000    -1.702000000    -1.757000000
H    -0.563000000    -1.246000000    -2.551000000
C     0.234000000    -0.983000000    -0.589000000
C    -0.249000000     0.451000000    -0.666000000
H    -0.765000000     0.709000000     0.261000000
H     0.617000000     1.097000000    -0.827000000
H    -0.947000000     0.803000000    -1.428000000
C     0.946000000    -1.597000000     0.453000000
H     1.208000000    -1.088000000     1.376000000
C     1.284000000    -2.954000000     0.360000000
H     1.652000000    -3.457000000     1.251000000
C     1.069000000    -3.662000000    -0.780000000
C     1.489000000    -5.123000000    -0.810000000
O     2.082000000    -5.612000000     0.135000000
O     1.106000000    -5.762000000    -1.723000000
