17
-90.22638
C    -0.027000000    -3.221000000    -1.889000000
H    -0.557000000    -3.724000000    -2.694000000
C    -0.359000000    -1.910000000    -1.437000000
H    -1.258000000    -1.438000000    -1.824000000
C     0.274000000    -1.342000000    -0.365000000
C    -0.226000000     0.005000000     0.134000000
H    -1.065000000    -0.185000000     0.806000000
H     0.547000000     0.444000000     0.768000000
H    -0.438000000     0.728000000    -0.656000000
C     1.313000000    -2.036000000     0.182000000
H     1.871000000    -1.565000000     0.987000000
C     1.630000000    -3.317000000    -0.112000000
H     2.413000000    -3.813000000     0.456000000
C     0.887000000    -3.906000000    -1.188000000
C     1.232000000    -5.425000000    -1.442000000
O     1.938000000    -6.034000000    -0.665000000
O     0.496000000    -6.042000000    -2.191000000
