17
-89.12387
C     0.128000000    -2.581000000    -0.486000000
H    -0.397000000    -3.420000000    -0.935000000
C    -0.356000000    -1.298000000    -0.607000000
H    -1.247000000    -1.024000000    -1.168000000
C     0.299000000    -0.339000000     0.117000000
C    -0.377000000     0.988000000     0.247000000
H    -0.525000000     1.385000000    -0.760000000
H    -1.332000000     1.025000000     0.776000000
H     0.327000000     1.695000000     0.690000000
C     1.388000000    -0.660000000     0.904000000
H     1.778000000     0.163000000     1.498000000
C     1.975000000    -1.909000000     0.874000000
H     2.840000000    -2.175000000     1.477000000
C     1.319000000    -2.958000000     0.216000000
C     1.675000000    -4.394000000     0.407000000
O     2.564000000    -4.657000000     1.134000000
O     1.111000000    -5.254000000    -0.217000000
