17
-89.79430
C    -0.429000000    -2.421000000    -1.559000000
H    -1.015000000    -2.816000000    -2.384000000
C    -0.647000000    -1.045000000    -1.339000000
H    -1.347000000    -0.526000000    -1.989000000
C     0.081000000    -0.404000000    -0.368000000
C    -0.121000000     1.015000000    -0.003000000
H    -1.148000000     1.164000000     0.338000000
H     0.647000000     1.412000000     0.665000000
H    -0.115000000     1.472000000    -0.995000000
C     1.092000000    -1.110000000     0.304000000
H     1.808000000    -0.707000000     1.016000000
C     1.321000000    -2.448000000     0.069000000
H     2.196000000    -2.972000000     0.445000000
C     0.511000000    -3.145000000    -0.859000000
C     0.938000000    -4.512000000    -1.337000000
O     1.697000000    -5.129000000    -0.697000000
O     0.423000000    -5.018000000    -2.346000000
