17
-96.51852
C     0.151000000    -2.684000000    -1.523000000
H    -0.299000000    -3.178000000    -2.381000000
C    -0.339000000    -1.417000000    -1.254000000
H    -1.280000000    -1.112000000    -1.706000000
C     0.255000000    -0.632000000    -0.276000000
C    -0.322000000     0.624000000     0.100000000
H    -0.777000000     0.549000000     1.090000000
H     0.384000000     1.446000000    -0.037000000
H    -1.184000000     0.847000000    -0.533000000
C     1.354000000    -1.147000000     0.421000000
H     1.892000000    -0.496000000     1.106000000
C     1.879000000    -2.435000000     0.172000000
H     2.800000000    -2.754000000     0.652000000
C     1.292000000    -3.208000000    -0.890000000
C     1.755000000    -4.552000000    -1.250000000
O     2.647000000    -5.046000000    -0.570000000
O     1.129000000    -5.173000000    -2.098000000
