17
-92.80205
C     0.064000000    -2.272000000    -1.345000000
H    -0.336000000    -3.000000000    -2.047000000
C    -0.506000000    -1.034000000    -1.116000000
H    -1.328000000    -0.564000000    -1.650000000
C     0.138000000    -0.075000000    -0.264000000
C    -0.353000000     1.333000000    -0.135000000
H     0.401000000     1.992000000     0.299000000
H    -0.563000000     1.749000000    -1.123000000
H    -1.357000000     1.445000000     0.279000000
C     1.256000000    -0.574000000     0.500000000
H     1.701000000     0.077000000     1.248000000
C     1.801000000    -1.834000000     0.245000000
H     2.587000000    -2.263000000     0.861000000
C     1.200000000    -2.687000000    -0.658000000
C     1.683000000    -4.179000000    -0.650000000
O     2.633000000    -4.490000000     0.091000000
O     1.291000000    -4.911000000    -1.490000000
