17
-90.32273
C     0.093000000    -2.605000000    -0.995000000
H    -0.047000000    -3.304000000    -1.816000000
C    -0.335000000    -1.265000000    -1.090000000
H    -0.921000000    -0.877000000    -1.920000000
C     0.129000000    -0.304000000    -0.112000000
C    -0.236000000     1.228000000    -0.070000000
H     0.655000000     1.835000000     0.105000000
H    -0.758000000     1.585000000    -0.960000000
H    -0.844000000     1.417000000     0.818000000
C     0.911000000    -0.804000000     0.988000000
H     1.242000000    -0.123000000     1.768000000
C     1.279000000    -2.175000000     1.034000000
H     1.835000000    -2.547000000     1.890000000
C     0.959000000    -3.056000000     0.045000000
C     1.642000000    -4.416000000    -0.089000000
O     1.796000000    -5.093000000     0.939000000
O     1.806000000    -4.943000000    -1.144000000
