17
-88.69349
C    -0.070000000    -2.436000000    -1.163000000
H    -0.704000000    -2.900000000    -1.914000000
C    -0.290000000    -1.117000000    -0.887000000
H    -1.057000000    -0.580000000    -1.440000000
C     0.412000000    -0.454000000     0.068000000
C     0.125000000     1.028000000     0.200000000
H    -0.196000000     1.530000000    -0.715000000
H    -0.640000000     1.247000000     0.948000000
H     0.954000000     1.643000000     0.557000000
C     1.465000000    -1.083000000     0.659000000
H     1.972000000    -0.507000000     1.429000000
C     1.782000000    -2.398000000     0.402000000
H     2.734000000    -2.764000000     0.778000000
C     1.096000000    -3.097000000    -0.562000000
C     1.415000000    -4.546000000    -0.870000000
O     2.357000000    -5.092000000    -0.334000000
O     0.525000000    -5.156000000    -1.393000000
