17
-95.59804
C    -0.348000000    -2.763000000    -1.323000000
H    -0.779000000    -3.193000000    -2.223000000
C    -0.538000000    -1.390000000    -1.105000000
H    -1.170000000    -0.818000000    -1.780000000
C     0.245000000    -0.745000000    -0.191000000
C     0.139000000     0.763000000    -0.156000000
H     0.944000000     1.227000000     0.418000000
H     0.179000000     1.188000000    -1.161000000
H    -0.778000000     0.954000000     0.405000000
C     0.991000000    -1.465000000     0.751000000
H     1.514000000    -1.008000000     1.588000000
C     1.073000000    -2.890000000     0.551000000
H     1.771000000    -3.473000000     1.147000000
C     0.549000000    -3.510000000    -0.559000000
C     0.757000000    -4.989000000    -0.825000000
O     1.621000000    -5.574000000    -0.194000000
O     0.025000000    -5.434000000    -1.641000000
