17
-90.40811
C    -0.164000000    -1.911000000    -0.785000000
H    -0.392000000    -2.622000000    -1.575000000
C    -0.473000000    -0.551000000    -0.918000000
H    -1.156000000    -0.067000000    -1.612000000
C    -0.109000000     0.376000000     0.095000000
C    -0.355000000     1.842000000    -0.040000000
H     0.467000000     2.469000000     0.312000000
H    -0.751000000     2.155000000    -1.008000000
H    -1.199000000     2.053000000     0.619000000
C     0.679000000    -0.035000000     1.121000000
H     1.187000000     0.644000000     1.801000000
C     1.079000000    -1.343000000     1.243000000
H     1.734000000    -1.677000000     2.044000000
C     0.721000000    -2.283000000     0.279000000
C     1.067000000    -3.759000000     0.497000000
O     1.949000000    -4.068000000     1.308000000
O     0.577000000    -4.733000000    -0.108000000
