17
-92.31708
C     0.866000000    -3.194000000    -0.376000000
H     0.674000000    -4.193000000    -0.760000000
C    -0.032000000    -2.143000000    -0.245000000
H    -1.082000000    -2.354000000    -0.432000000
C     0.442000000    -0.826000000    -0.068000000
C    -0.554000000     0.339000000     0.100000000
H    -1.591000000     0.016000000     0.213000000
H    -0.180000000     0.922000000     0.944000000
H    -0.479000000     0.942000000    -0.807000000
C     1.771000000    -0.626000000     0.228000000
H     2.085000000     0.406000000     0.364000000
C     2.649000000    -1.651000000     0.047000000
H     3.710000000    -1.418000000     0.006000000
C     2.253000000    -2.978000000    -0.248000000
C     3.255000000    -4.142000000    -0.405000000
O     4.406000000    -3.946000000    -0.126000000
O     2.919000000    -5.104000000    -1.063000000
