17
-93.23911
C    -0.606000000    -2.181000000    -0.627000000
H    -1.183000000    -2.696000000    -1.391000000
C    -0.729000000    -0.824000000    -0.537000000
H    -1.378000000    -0.316000000    -1.246000000
C     0.099000000    -0.053000000     0.250000000
C    -0.038000000     1.480000000     0.251000000
H     0.322000000     1.860000000     1.209000000
H     0.680000000     1.842000000    -0.488000000
H    -1.085000000     1.730000000     0.069000000
C     1.029000000    -0.601000000     1.085000000
H     1.474000000     0.051000000     1.833000000
C     1.206000000    -1.983000000     1.011000000
H     2.021000000    -2.483000000     1.528000000
C     0.321000000    -2.796000000     0.229000000
C     0.489000000    -4.318000000     0.244000000
O     1.529000000    -4.738000000     0.689000000
O    -0.275000000    -5.068000000    -0.336000000
