17
-92.65415
C    -0.433000000    -2.531000000    -0.927000000
H    -0.637000000    -3.056000000    -1.857000000
C    -0.509000000    -1.126000000    -0.928000000
H    -0.838000000    -0.695000000    -1.870000000
C    -0.155000000    -0.428000000     0.201000000
C    -0.466000000     1.085000000     0.233000000
H    -1.451000000     1.369000000     0.610000000
H     0.195000000     1.689000000     0.858000000
H    -0.401000000     1.588000000    -0.735000000
C     0.221000000    -1.108000000     1.363000000
H     0.511000000    -0.577000000     2.266000000
C     0.316000000    -2.486000000     1.308000000
H     0.677000000    -2.936000000     2.229000000
C     0.024000000    -3.228000000     0.190000000
C    -0.027000000    -4.723000000     0.228000000
O     0.414000000    -5.279000000     1.185000000
O    -0.555000000    -5.401000000    -0.640000000
