17
-92.64710
C    -0.093000000    -2.817000000    -0.081000000
H    -0.566000000    -3.560000000    -0.718000000
C    -0.260000000    -1.460000000    -0.353000000
H    -0.797000000    -1.098000000    -1.226000000
C     0.207000000    -0.521000000     0.567000000
C    -0.014000000     0.928000000     0.390000000
H     0.214000000     1.489000000     1.299000000
H     0.567000000     1.216000000    -0.489000000
H    -1.048000000     1.067000000     0.070000000
C     0.936000000    -0.918000000     1.646000000
H     1.378000000    -0.186000000     2.317000000
C     1.282000000    -2.256000000     1.837000000
H     1.953000000    -2.607000000     2.616000000
C     0.749000000    -3.262000000     0.951000000
C     0.831000000    -4.674000000     1.279000000
O     1.630000000    -5.087000000     2.150000000
O     0.138000000    -5.459000000     0.725000000
