17
-92.48919
C    -0.998000000    -2.276000000    -1.700000000
H    -1.462000000    -2.519000000    -2.653000000
C    -0.870000000    -0.944000000    -1.430000000
H    -1.265000000    -0.250000000    -2.167000000
C    -0.371000000    -0.431000000    -0.244000000
C    -0.103000000     1.026000000    -0.097000000
H     0.182000000     1.582000000    -0.992000000
H    -1.018000000     1.532000000     0.219000000
H     0.716000000     1.162000000     0.612000000
C    -0.015000000    -1.330000000     0.836000000
H     0.228000000    -1.002000000     1.843000000
C    -0.264000000    -2.663000000     0.641000000
H    -0.270000000    -3.413000000     1.428000000
C    -0.632000000    -3.187000000    -0.654000000
C    -0.789000000    -4.668000000    -0.817000000
O    -0.666000000    -5.446000000     0.167000000
O    -0.765000000    -5.144000000    -1.935000000
