17
-94.26946
C    -1.080000000    -2.576000000    -0.191000000
H    -1.894000000    -3.113000000    -0.672000000
C    -0.984000000    -1.159000000    -0.299000000
H    -1.583000000    -0.556000000    -0.977000000
C     0.093000000    -0.530000000     0.327000000
C     0.258000000     1.004000000     0.162000000
H    -0.649000000     1.477000000    -0.222000000
H     0.568000000     1.559000000     1.050000000
H     1.037000000     1.106000000    -0.597000000
C     1.047000000    -1.230000000     1.040000000
H     1.855000000    -0.691000000     1.527000000
C     0.895000000    -2.621000000     1.165000000
H     1.680000000    -3.199000000     1.646000000
C    -0.195000000    -3.329000000     0.548000000
C    -0.325000000    -4.838000000     0.752000000
O     0.547000000    -5.356000000     1.368000000
O    -1.115000000    -5.519000000     0.127000000
