17
-89.36689
C    -0.735000000    -2.192000000    -1.090000000
H    -0.848000000    -2.690000000    -2.050000000
C    -0.709000000    -0.810000000    -1.010000000
H    -0.887000000    -0.136000000    -1.844000000
C    -0.370000000    -0.172000000     0.144000000
C    -0.266000000     1.351000000     0.081000000
H    -0.415000000     1.823000000     1.054000000
H     0.619000000     1.778000000    -0.395000000
H    -1.109000000     1.792000000    -0.456000000
C     0.040000000    -0.880000000     1.268000000
H     0.512000000    -0.404000000     2.123000000
C     0.001000000    -2.287000000     1.246000000
H     0.358000000    -2.915000000     2.058000000
C    -0.387000000    -2.935000000     0.055000000
C    -0.175000000    -4.420000000    -0.014000000
O     0.414000000    -4.951000000     0.878000000
O    -0.200000000    -4.919000000    -1.116000000
