17
-90.65639
C    -0.288000000    -2.417000000    -0.930000000
H    -0.603000000    -3.123000000    -1.694000000
C    -0.497000000    -1.045000000    -1.082000000
H    -1.022000000    -0.662000000    -1.954000000
C     0.013000000    -0.183000000    -0.034000000
C    -0.090000000     1.325000000    -0.229000000
H    -0.591000000     1.415000000    -1.195000000
H    -0.685000000     1.777000000     0.567000000
H     0.862000000     1.860000000    -0.203000000
C     0.629000000    -0.725000000     1.093000000
H     0.835000000     0.034000000     1.844000000
C     0.752000000    -2.085000000     1.218000000
H     1.320000000    -2.382000000     2.096000000
C     0.332000000    -2.981000000     0.202000000
C     0.588000000    -4.453000000     0.241000000
O     0.965000000    -5.012000000     1.273000000
O     0.241000000    -5.180000000    -0.645000000
