17
-84.85092
C    -0.774000000    -2.295000000    -1.380000000
H    -1.216000000    -2.675000000    -2.298000000
C    -0.766000000    -0.909000000    -1.238000000
H    -1.100000000    -0.382000000    -2.128000000
C    -0.223000000    -0.280000000    -0.073000000
C    -0.350000000     1.239000000     0.093000000
H    -1.145000000     1.497000000     0.795000000
H     0.596000000     1.558000000     0.535000000
H    -0.487000000     1.786000000    -0.842000000
C     0.250000000    -1.128000000     0.925000000
H     0.484000000    -0.718000000     1.904000000
C     0.175000000    -2.522000000     0.782000000
H     0.532000000    -3.185000000     1.566000000
C    -0.352000000    -3.083000000    -0.337000000
C    -0.255000000    -4.582000000    -0.470000000
O     0.172000000    -5.247000000     0.465000000
O    -0.184000000    -5.065000000    -1.533000000
