17
-96.59104
C     0.398000000    -3.765000000    -0.050000000
H    -0.170000000    -4.364000000    -0.758000000
C     0.527000000    -2.435000000    -0.456000000
H     0.196000000    -2.141000000    -1.449000000
C     1.234000000    -1.550000000     0.352000000
C     1.557000000    -0.209000000    -0.215000000
H     1.636000000    -0.299000000    -1.301000000
H     0.865000000     0.582000000     0.082000000
H     2.578000000     0.029000000     0.089000000
C     1.750000000    -1.881000000     1.584000000
H     2.415000000    -1.271000000     2.190000000
C     1.586000000    -3.223000000     1.990000000
H     2.003000000    -3.595000000     2.922000000
C     1.015000000    -4.235000000     1.103000000
C     0.966000000    -5.738000000     1.477000000
O     1.164000000    -6.020000000     2.687000000
O     0.621000000    -6.562000000     0.669000000
