17
-94.59182
C     0.563000000    -2.919000000    -0.388000000
H    -0.028000000    -3.772000000    -0.711000000
C    -0.095000000    -1.730000000    -0.166000000
H    -1.176000000    -1.712000000    -0.278000000
C     0.580000000    -0.587000000     0.211000000
C    -0.098000000     0.719000000     0.424000000
H    -0.417000000     0.736000000     1.469000000
H     0.537000000     1.593000000     0.265000000
H    -0.875000000     0.854000000    -0.331000000
C     1.930000000    -0.711000000     0.537000000
H     2.502000000     0.134000000     0.910000000
C     2.584000000    -1.940000000     0.334000000
H     3.648000000    -1.941000000     0.556000000
C     1.946000000    -3.021000000    -0.234000000
C     2.600000000    -4.366000000    -0.448000000
O     3.776000000    -4.408000000    -0.278000000
O     2.001000000    -5.362000000    -0.764000000
