17
-95.15795
C    -0.159000000    -2.762000000     0.116000000
H    -0.597000000    -3.628000000    -0.374000000
C    -0.558000000    -1.527000000    -0.318000000
H    -1.192000000    -1.425000000    -1.196000000
C    -0.107000000    -0.335000000     0.288000000
C    -0.529000000     1.059000000    -0.233000000
H    -0.446000000     1.799000000     0.566000000
H     0.146000000     1.327000000    -1.049000000
H    -1.547000000     1.111000000    -0.627000000
C     0.735000000    -0.386000000     1.382000000
H     1.130000000     0.503000000     1.867000000
C     1.023000000    -1.631000000     1.885000000
H     1.539000000    -1.662000000     2.842000000
C     0.673000000    -2.810000000     1.241000000
C     1.112000000    -4.115000000     1.882000000
O     1.709000000    -4.116000000     2.937000000
O     1.073000000    -5.213000000     1.297000000
