17
-90.18410
C     0.302000000    -2.821000000    -0.255000000
H     0.045000000    -3.566000000    -1.004000000
C    -0.077000000    -1.514000000    -0.519000000
H    -0.437000000    -1.267000000    -1.514000000
C     0.107000000    -0.591000000     0.415000000
C    -0.397000000     0.870000000     0.153000000
H     0.217000000     1.315000000    -0.633000000
H    -1.485000000     0.933000000     0.096000000
H    -0.304000000     1.523000000     1.024000000
C     0.716000000    -0.894000000     1.653000000
H     0.784000000    -0.150000000     2.443000000
C     1.079000000    -2.201000000     1.941000000
H     1.523000000    -2.480000000     2.893000000
C     0.805000000    -3.224000000     1.016000000
C     1.197000000    -4.615000000     1.307000000
O     1.415000000    -5.013000000     2.441000000
O     1.269000000    -5.407000000     0.402000000
