17
-93.35484
C     0.661000000    -2.390000000    -0.239000000
H     1.286000000    -2.998000000    -0.888000000
C     0.494000000    -1.099000000    -0.686000000
H     1.151000000    -0.882000000    -1.524000000
C    -0.314000000    -0.220000000    -0.014000000
C    -0.455000000     1.226000000    -0.530000000
H     0.052000000     1.897000000     0.168000000
H    -0.069000000     1.421000000    -1.533000000
H    -1.512000000     1.462000000    -0.389000000
C    -1.020000000    -0.667000000     1.078000000
H    -1.536000000     0.019000000     1.744000000
C    -0.873000000    -1.985000000     1.511000000
H    -1.438000000    -2.249000000     2.402000000
C    -0.011000000    -2.872000000     0.799000000
C     0.141000000    -4.346000000     1.250000000
O    -0.613000000    -4.821000000     2.063000000
O     1.059000000    -5.007000000     0.779000000
