17
-95.17958
C    -0.091000000    -2.523000000    -0.033000000
H    -0.372000000    -3.412000000    -0.591000000
C    -0.372000000    -1.225000000    -0.575000000
H    -0.903000000    -1.196000000    -1.523000000
C    -0.103000000    -0.120000000     0.207000000
C    -0.344000000     1.251000000    -0.308000000
H    -0.238000000     1.930000000     0.541000000
H     0.456000000     1.485000000    -1.013000000
H    -1.347000000     1.401000000    -0.712000000
C     0.541000000    -0.293000000     1.432000000
H     0.808000000     0.572000000     2.035000000
C     0.785000000    -1.546000000     1.903000000
H     1.211000000    -1.689000000     2.893000000
C     0.582000000    -2.659000000     1.170000000
C     0.866000000    -4.020000000     1.781000000
O     1.459000000    -4.161000000     2.797000000
O     0.521000000    -4.991000000     1.107000000
