17
-92.84258
C     1.341000000    -2.529000000    -0.600000000
H     2.177000000    -2.977000000    -1.130000000
C     0.883000000    -1.208000000    -0.869000000
H     1.447000000    -0.591000000    -1.564000000
C    -0.252000000    -0.696000000    -0.167000000
C    -0.519000000     0.787000000    -0.315000000
H    -0.652000000     1.196000000     0.689000000
H     0.351000000     1.366000000    -0.631000000
H    -1.367000000     0.963000000    -0.981000000
C    -0.847000000    -1.525000000     0.752000000
H    -1.672000000    -1.130000000     1.341000000
C    -0.423000000    -2.866000000     1.017000000
H    -0.885000000    -3.487000000     1.780000000
C     0.646000000    -3.382000000     0.286000000
C     1.076000000    -4.794000000     0.544000000
O     0.393000000    -5.433000000     1.280000000
O     2.262000000    -5.056000000     0.355000000
