17
-96.75931
C     0.887000000    -2.210000000    -1.391000000
H     1.423000000    -2.521000000    -2.284000000
C     0.732000000    -0.882000000    -1.069000000
H     1.225000000    -0.182000000    -1.738000000
C     0.041000000    -0.434000000     0.069000000
C    -0.064000000     1.016000000     0.250000000
H    -0.071000000     1.569000000    -0.691000000
H    -0.871000000     1.316000000     0.922000000
H     0.787000000     1.361000000     0.842000000
C    -0.578000000    -1.443000000     0.840000000
H    -1.251000000    -1.198000000     1.659000000
C    -0.431000000    -2.799000000     0.502000000
H    -0.970000000    -3.550000000     1.074000000
C     0.325000000    -3.187000000    -0.558000000
C     0.509000000    -4.644000000    -0.832000000
O    -0.283000000    -5.462000000    -0.364000000
O     1.364000000    -5.047000000    -1.576000000
