17
-97.14119
C     0.978000000    -2.299000000    -0.509000000
H     1.739000000    -2.724000000    -1.159000000
C     0.686000000    -0.945000000    -0.712000000
H     1.309000000    -0.383000000    -1.403000000
C    -0.220000000    -0.324000000     0.123000000
C    -0.472000000     1.172000000    -0.048000000
H     0.377000000     1.821000000     0.173000000
H    -0.903000000     1.420000000    -1.021000000
H    -1.351000000     1.407000000     0.556000000
C    -0.890000000    -1.036000000     1.133000000
H    -1.591000000    -0.494000000     1.763000000
C    -0.678000000    -2.431000000     1.243000000
H    -1.103000000    -2.964000000     2.089000000
C     0.257000000    -3.093000000     0.446000000
C     0.626000000    -4.558000000     0.569000000
O    -0.201000000    -5.377000000     0.925000000
O     1.723000000    -4.924000000     0.210000000
