17
-92.13343
C     1.899000000    -2.585000000    -0.664000000
H     2.756000000    -3.052000000    -1.144000000
C     1.455000000    -1.220000000    -0.762000000
H     1.984000000    -0.476000000    -1.352000000
C     0.252000000    -0.791000000    -0.273000000
C    -0.237000000     0.546000000    -0.603000000
H     0.156000000     0.892000000    -1.561000000
H    -1.327000000     0.593000000    -0.657000000
H     0.070000000     1.242000000     0.180000000
C    -0.546000000    -1.764000000     0.437000000
H    -1.543000000    -1.465000000     0.749000000
C    -0.063000000    -3.046000000     0.612000000
H    -0.509000000    -3.760000000     1.300000000
C     1.207000000    -3.426000000     0.145000000
C     1.725000000    -4.834000000     0.368000000
O     1.404000000    -5.444000000     1.374000000
O     2.570000000    -5.370000000    -0.338000000
