17
-102.57367
C     0.827000000    -2.425000000    -0.407000000
H     1.536000000    -2.932000000    -1.056000000
C     0.646000000    -1.055000000    -0.567000000
H     1.126000000    -0.557000000    -1.406000000
C    -0.117000000    -0.393000000     0.385000000
C    -0.315000000     1.104000000     0.340000000
H     0.220000000     1.529000000     1.192000000
H     0.019000000     1.604000000    -0.571000000
H    -1.338000000     1.482000000     0.400000000
C    -0.681000000    -1.050000000     1.465000000
H    -1.290000000    -0.494000000     2.173000000
C    -0.548000000    -2.420000000     1.625000000
H    -0.922000000    -2.963000000     2.489000000
C     0.226000000    -3.112000000     0.645000000
C     0.604000000    -4.540000000     0.862000000
O     0.026000000    -5.172000000     1.746000000
O     1.424000000    -5.087000000     0.102000000
