17
-98.34824
C     0.963000000    -2.614000000    -0.753000000
H     1.699000000    -3.227000000    -1.267000000
C     0.707000000    -1.337000000    -1.076000000
H     1.140000000    -0.878000000    -1.961000000
C    -0.243000000    -0.518000000    -0.409000000
C    -0.501000000     0.919000000    -0.848000000
H     0.199000000     1.613000000    -0.377000000
H    -0.372000000     1.040000000    -1.925000000
H    -1.487000000     1.226000000    -0.493000000
C    -0.824000000    -1.002000000     0.764000000
H    -1.513000000    -0.326000000     1.265000000
C    -0.672000000    -2.380000000     1.067000000
H    -1.100000000    -2.770000000     1.988000000
C     0.275000000    -3.138000000     0.350000000
C     0.734000000    -4.489000000     0.977000000
O     0.432000000    -4.792000000     2.154000000
O     1.527000000    -5.202000000     0.341000000
