17
-95.60967
C     1.058000000    -2.757000000    -0.420000000
H     1.827000000    -3.194000000    -1.052000000
C     0.700000000    -1.438000000    -0.788000000
H     1.124000000    -0.995000000    -1.685000000
C    -0.254000000    -0.746000000    -0.007000000
C    -0.492000000     0.707000000    -0.245000000
H    -0.472000000     0.979000000    -1.303000000
H    -1.458000000     1.002000000     0.169000000
H     0.261000000     1.284000000     0.295000000
C    -0.747000000    -1.360000000     1.160000000
H    -1.565000000    -0.933000000     1.735000000
C    -0.379000000    -2.655000000     1.471000000
H    -0.854000000    -3.117000000     2.333000000
C     0.555000000    -3.336000000     0.743000000
C     1.117000000    -4.592000000     1.225000000
O     0.498000000    -5.126000000     2.105000000
O     2.286000000    -4.894000000     0.944000000
