17
-95.36658
C     2.126000000    -1.009000000     0.970000000
H     2.943000000    -0.787000000     1.652000000
C     1.323000000     0.058000000     0.597000000
H     1.491000000     1.043000000     1.023000000
C     0.258000000    -0.233000000    -0.264000000
C    -0.535000000     0.970000000    -0.742000000
H    -0.057000000     1.933000000    -0.553000000
H    -0.731000000     1.029000000    -1.815000000
H    -1.538000000     0.998000000    -0.311000000
C     0.005000000    -1.457000000    -0.810000000
H    -0.751000000    -1.489000000    -1.592000000
C     0.798000000    -2.532000000    -0.386000000
H     0.714000000    -3.532000000    -0.804000000
C     1.874000000    -2.275000000     0.457000000
C     2.779000000    -3.359000000     0.917000000
O     2.463000000    -4.511000000     0.665000000
O     3.935000000    -3.132000000     1.273000000
