17
-84.44349
C     1.842000000    -2.232000000     0.656000000
H     2.864000000    -2.441000000     0.963000000
C     1.414000000    -0.957000000     0.425000000
H     2.020000000    -0.126000000     0.775000000
C     0.190000000    -0.680000000    -0.242000000
C    -0.278000000     0.704000000    -0.596000000
H     0.393000000     1.493000000    -0.248000000
H    -0.438000000     0.689000000    -1.676000000
H    -1.265000000     0.957000000    -0.204000000
C    -0.675000000    -1.831000000    -0.505000000
H    -1.710000000    -1.755000000    -0.830000000
C    -0.244000000    -3.148000000    -0.181000000
H    -0.916000000    -3.965000000    -0.432000000
C     1.001000000    -3.394000000     0.478000000
C     1.495000000    -4.703000000     0.858000000
O     0.772000000    -5.606000000     0.838000000
O     2.641000000    -4.820000000     1.316000000
