17
-82.53021
C     1.568000000    -2.015000000    -0.454000000
H     2.653000000    -2.061000000    -0.503000000
C     0.991000000    -0.734000000    -0.629000000
H     1.714000000     0.020000000    -0.930000000
C    -0.233000000    -0.410000000    -0.252000000
C    -0.716000000     1.024000000    -0.440000000
H    -1.223000000     1.137000000    -1.400000000
H    -1.444000000     1.322000000     0.317000000
H     0.153000000     1.676000000    -0.326000000
C    -0.990000000    -1.373000000     0.360000000
H    -1.897000000    -0.993000000     0.824000000
C    -0.544000000    -2.718000000     0.467000000
H    -1.182000000    -3.456000000     0.946000000
C     0.769000000    -3.004000000     0.139000000
C     1.307000000    -4.378000000     0.576000000
O     0.648000000    -5.292000000     1.000000000
O     2.489000000    -4.507000000     0.615000000
