17
-93.22922
C     1.385000000    -2.142000000     1.141000000
H     2.310000000    -2.198000000     1.710000000
C     0.968000000    -0.857000000     0.819000000
H     1.460000000    -0.013000000     1.295000000
C    -0.032000000    -0.597000000    -0.157000000
C    -0.371000000     0.844000000    -0.573000000
H    -1.086000000     1.363000000     0.069000000
H     0.535000000     1.454000000    -0.598000000
H    -0.692000000     0.789000000    -1.615000000
C    -0.698000000    -1.708000000    -0.685000000
H    -1.447000000    -1.481000000    -1.439000000
C    -0.341000000    -2.994000000    -0.280000000
H    -0.841000000    -3.829000000    -0.764000000
C     0.679000000    -3.255000000     0.636000000
C     1.049000000    -4.637000000     0.992000000
O     0.500000000    -5.483000000     0.380000000
O     1.618000000    -4.779000000     2.070000000
