17
-93.04673
C     2.013000000    -2.775000000     1.300000000
H     3.004000000    -2.897000000     1.729000000
C     1.553000000    -1.525000000     1.036000000
H     2.078000000    -0.623000000     1.341000000
C     0.358000000    -1.314000000     0.362000000
C    -0.173000000     0.110000000     0.125000000
H    -0.579000000     0.214000000    -0.884000000
H    -1.025000000     0.287000000     0.784000000
H     0.590000000     0.856000000     0.358000000
C    -0.504000000    -2.396000000     0.124000000
H    -1.441000000    -2.365000000    -0.426000000
C     0.032000000    -3.695000000     0.363000000
H    -0.631000000    -4.518000000     0.106000000
C     1.288000000    -3.846000000     0.890000000
C     1.783000000    -5.264000000     1.066000000
O     1.221000000    -6.273000000     0.710000000
O     2.752000000    -5.325000000     1.803000000
