17
-84.80386
C     2.041000000    -1.386000000     1.647000000
H     2.952000000    -1.267000000     2.228000000
C     1.527000000    -0.224000000     1.087000000
H     2.072000000     0.716000000     1.072000000
C     0.363000000    -0.359000000     0.339000000
C    -0.155000000     0.880000000    -0.317000000
H     0.674000000     1.483000000    -0.695000000
H    -1.005000000     0.583000000    -0.934000000
H    -0.591000000     1.426000000     0.521000000
C    -0.267000000    -1.655000000     0.256000000
H    -1.186000000    -1.808000000    -0.304000000
C     0.193000000    -2.712000000     0.986000000
H    -0.410000000    -3.600000000     1.161000000
C     1.349000000    -2.633000000     1.714000000
C     1.976000000    -3.909000000     2.290000000
O     1.167000000    -4.740000000     2.576000000
O     3.114000000    -4.039000000     2.617000000
