17
-92.37327
C     1.991000000    -1.520000000     1.394000000
H     2.947000000    -1.513000000     1.911000000
C     1.499000000    -0.316000000     0.993000000
H     2.155000000     0.512000000     1.251000000
C     0.412000000    -0.221000000     0.166000000
C     0.028000000     1.045000000    -0.438000000
H    -0.812000000     1.473000000     0.114000000
H     0.832000000     1.759000000    -0.627000000
H    -0.368000000     0.766000000    -1.417000000
C    -0.381000000    -1.301000000    -0.106000000
H    -1.331000000    -1.117000000    -0.603000000
C    -0.029000000    -2.577000000     0.463000000
H    -0.594000000    -3.478000000     0.240000000
C     1.196000000    -2.698000000     1.122000000
C     1.592000000    -4.038000000     1.768000000
O     1.000000000    -5.046000000     1.511000000
O     2.426000000    -3.950000000     2.702000000
