17
-95.68623
C     1.897000000    -1.648000000     1.128000000
H     2.873000000    -1.758000000     1.594000000
C     1.681000000    -0.524000000     0.323000000
H     2.498000000     0.089000000    -0.047000000
C     0.421000000    -0.251000000    -0.102000000
C     0.182000000     0.999000000    -0.930000000
H    -0.409000000     0.722000000    -1.806000000
H    -0.422000000     1.832000000    -0.564000000
H     1.152000000     1.382000000    -1.251000000
C    -0.635000000    -1.159000000     0.197000000
H    -1.571000000    -1.051000000    -0.345000000
C    -0.331000000    -2.378000000     0.836000000
H    -1.151000000    -3.080000000     0.954000000
C     0.908000000    -2.648000000     1.370000000
C     1.265000000    -3.878000000     2.206000000
O     0.447000000    -4.780000000     2.435000000
O     2.388000000    -3.929000000     2.646000000
