17
-93.02672
C     1.845000000    -2.163000000     0.881000000
H     2.833000000    -2.294000000     1.316000000
C     1.679000000    -0.892000000     0.295000000
H     2.446000000    -0.122000000     0.298000000
C     0.433000000    -0.584000000    -0.282000000
C     0.058000000     0.795000000    -0.820000000
H     0.090000000     0.818000000    -1.911000000
H    -0.859000000     1.200000000    -0.387000000
H     0.781000000     1.519000000    -0.439000000
C    -0.590000000    -1.550000000    -0.212000000
H    -1.606000000    -1.296000000    -0.505000000
C    -0.419000000    -2.759000000     0.390000000
H    -1.153000000    -3.557000000     0.473000000
C     0.874000000    -3.149000000     0.918000000
C     1.095000000    -4.580000000     1.469000000
O     0.138000000    -5.240000000     1.830000000
O     2.204000000    -4.826000000     1.818000000
