17
-87.16595
C     1.659000000    -1.657000000     1.252000000
H     2.463000000    -1.806000000     1.968000000
C     1.381000000    -0.394000000     0.730000000
H     2.152000000     0.370000000     0.797000000
C     0.195000000    -0.225000000     0.089000000
C    -0.190000000     1.177000000    -0.409000000
H     0.670000000     1.836000000    -0.540000000
H    -0.863000000     1.084000000    -1.264000000
H    -0.788000000     1.698000000     0.342000000
C    -0.727000000    -1.268000000    -0.058000000
H    -1.588000000    -1.080000000    -0.695000000
C    -0.523000000    -2.499000000     0.541000000
H    -1.128000000    -3.381000000     0.346000000
C     0.760000000    -2.746000000     1.145000000
C     1.050000000    -4.111000000     1.708000000
O     0.160000000    -4.875000000     1.941000000
O     2.146000000    -4.441000000     2.035000000
