17
-95.83294
C     1.857000000    -1.067000000     1.329000000
H     2.849000000    -1.026000000     1.773000000
C     1.378000000     0.066000000     0.673000000
H     1.916000000     1.009000000     0.731000000
C     0.118000000     0.043000000     0.025000000
C    -0.257000000     1.299000000    -0.764000000
H    -1.212000000     1.095000000    -1.252000000
H    -0.304000000     2.154000000    -0.087000000
H     0.582000000     1.515000000    -1.429000000
C    -0.571000000    -1.219000000    -0.033000000
H    -1.430000000    -1.260000000    -0.697000000
C     0.034000000    -2.355000000     0.447000000
H    -0.284000000    -3.384000000     0.304000000
C     1.245000000    -2.288000000     1.235000000
C     1.827000000    -3.521000000     1.874000000
O     1.240000000    -4.590000000     1.767000000
O     2.719000000    -3.321000000     2.678000000
