17
-97.08821
C     1.665000000    -1.925000000     1.216000000
H     2.628000000    -2.013000000     1.712000000
C     1.292000000    -0.767000000     0.540000000
H     1.965000000     0.087000000     0.539000000
C     0.066000000    -0.683000000    -0.098000000
C    -0.376000000     0.547000000    -0.887000000
H    -0.050000000     1.435000000    -0.341000000
H     0.052000000     0.579000000    -1.891000000
H    -1.451000000     0.734000000    -0.937000000
C    -0.770000000    -1.762000000    -0.040000000
H    -1.680000000    -1.779000000    -0.634000000
C    -0.470000000    -2.908000000     0.684000000
H    -1.229000000    -3.684000000     0.740000000
C     0.826000000    -3.073000000     1.189000000
C     1.214000000    -4.442000000     1.797000000
O     0.320000000    -5.260000000     1.979000000
O     2.284000000    -4.575000000     2.386000000
