17
-91.13278
C     2.227000000    -1.360000000     1.311000000
H     3.137000000    -1.287000000     1.901000000
C     1.403000000    -0.242000000     1.019000000
H     1.723000000     0.686000000     1.488000000
C     0.278000000    -0.306000000     0.170000000
C    -0.679000000     0.841000000    -0.108000000
H    -1.330000000     1.027000000     0.749000000
H    -0.089000000     1.740000000    -0.298000000
H    -1.294000000     0.570000000    -0.968000000
C    -0.030000000    -1.533000000    -0.359000000
H    -0.892000000    -1.755000000    -0.982000000
C     0.680000000    -2.634000000    -0.059000000
H     0.323000000    -3.548000000    -0.528000000
C     1.854000000    -2.590000000     0.726000000
C     2.739000000    -3.819000000     0.900000000
O     2.489000000    -4.823000000     0.295000000
O     3.642000000    -3.876000000     1.708000000
