17
-98.09637
C     2.562000000    -1.714000000     1.319000000
H     3.307000000    -1.662000000     2.109000000
C     1.743000000    -0.636000000     1.089000000
H     1.830000000     0.303000000     1.628000000
C     0.824000000    -0.681000000     0.029000000
C    -0.178000000     0.443000000    -0.168000000
H     0.273000000     1.430000000    -0.290000000
H    -0.849000000     0.408000000    -1.029000000
H    -0.764000000     0.404000000     0.752000000
C     0.595000000    -1.902000000    -0.654000000
H    -0.240000000    -2.067000000    -1.329000000
C     1.448000000    -3.003000000    -0.395000000
H     1.307000000    -3.942000000    -0.923000000
C     2.452000000    -2.856000000     0.594000000
C     3.334000000    -4.009000000     0.894000000
O     3.335000000    -5.016000000     0.164000000
O     4.261000000    -3.897000000     1.765000000
