17
-85.60368
C     1.577000000    -0.752000000     2.061000000
H     2.102000000    -0.525000000     2.985000000
C     0.929000000     0.296000000     1.390000000
H     0.983000000     1.317000000     1.761000000
C     0.036000000    -0.070000000     0.369000000
C    -0.802000000     1.023000000    -0.362000000
H    -0.701000000     0.935000000    -1.446000000
H    -1.872000000     0.828000000    -0.262000000
H    -0.531000000     1.999000000     0.046000000
C    -0.130000000    -1.376000000     0.038000000
H    -0.806000000    -1.767000000    -0.718000000
C     0.586000000    -2.376000000     0.664000000
H     0.360000000    -3.377000000     0.305000000
C     1.431000000    -2.051000000     1.743000000
C     2.171000000    -3.101000000     2.364000000
O     2.313000000    -4.213000000     1.865000000
O     2.775000000    -2.892000000     3.383000000
