17
-101.78597
C     1.305000000    -1.367000000    -1.871000000
H     1.356000000    -1.518000000    -2.946000000
C     0.435000000    -0.439000000    -1.313000000
H    -0.164000000     0.187000000    -1.970000000
C     0.307000000    -0.279000000     0.053000000
C    -0.750000000     0.668000000     0.578000000
H    -1.303000000     0.246000000     1.420000000
H    -0.252000000     1.593000000     0.873000000
H    -1.586000000     0.918000000    -0.078000000
C     1.150000000    -0.996000000     0.831000000
H     1.149000000    -0.916000000     1.915000000
C     2.085000000    -1.926000000     0.306000000
H     2.754000000    -2.502000000     0.940000000
C     2.138000000    -2.144000000    -1.096000000
C     3.016000000    -3.180000000    -1.749000000
O     3.496000000    -3.989000000    -0.927000000
O     3.181000000    -3.222000000    -2.956000000
