17
-96.52125
C     2.453000000    -1.385000000     1.451000000
H     3.215000000    -1.298000000     2.222000000
C     1.771000000    -0.259000000     1.005000000
H     1.917000000     0.718000000     1.458000000
C     0.879000000    -0.344000000    -0.056000000
C    -0.010000000     0.805000000    -0.513000000
H     0.417000000     1.772000000    -0.238000000
H    -0.025000000     0.803000000    -1.605000000
H    -1.066000000     0.716000000    -0.252000000
C     0.717000000    -1.641000000    -0.608000000
H    -0.040000000    -1.767000000    -1.378000000
C     1.469000000    -2.710000000    -0.239000000
H     1.408000000    -3.655000000    -0.773000000
C     2.374000000    -2.596000000     0.797000000
C     3.333000000    -3.747000000     1.066000000
O     3.642000000    -4.532000000     0.171000000
O     3.851000000    -3.946000000     2.159000000
