17
-94.96309
C     1.426000000    -1.009000000     1.625000000
H     2.059000000    -0.866000000     2.497000000
C     0.839000000     0.113000000     1.150000000
H     1.141000000     1.115000000     1.444000000
C     0.020000000     0.041000000     0.077000000
C    -0.562000000     1.292000000    -0.387000000
H    -1.520000000     1.116000000    -0.882000000
H    -0.745000000     1.994000000     0.429000000
H     0.019000000     1.714000000    -1.210000000
C    -0.281000000    -1.171000000    -0.487000000
H    -0.846000000    -1.272000000    -1.410000000
C     0.404000000    -2.336000000    -0.100000000
H     0.388000000    -3.274000000    -0.649000000
C     1.280000000    -2.295000000     1.015000000
C     2.175000000    -3.498000000     1.332000000
O     2.336000000    -4.315000000     0.436000000
O     2.717000000    -3.561000000     2.467000000
