17
-91.26372
C     3.145000000     0.119000000     0.801000000
H     3.878000000     0.606000000     1.439000000
C     1.826000000     0.552000000     0.772000000
H     1.536000000     1.502000000     1.212000000
C     0.889000000    -0.195000000     0.075000000
C    -0.620000000     0.198000000     0.195000000
H    -0.853000000     1.254000000     0.040000000
H    -1.167000000    -0.356000000    -0.571000000
H    -1.207000000    -0.251000000     0.999000000
C     1.230000000    -1.349000000    -0.541000000
H     0.452000000    -1.928000000    -1.033000000
C     2.571000000    -1.709000000    -0.690000000
H     2.825000000    -2.540000000    -1.343000000
C     3.558000000    -0.944000000    -0.019000000
C     5.019000000    -1.382000000     0.039000000
O     5.333000000    -2.472000000    -0.463000000
O     5.857000000    -0.833000000     0.727000000
