17
-89.73888
C     2.604000000    -0.123000000     1.085000000
H     3.213000000     0.222000000     1.916000000
C     1.313000000     0.384000000     0.894000000
H     0.930000000     1.281000000     1.374000000
C     0.492000000    -0.151000000    -0.147000000
C    -0.886000000     0.318000000    -0.421000000
H    -1.380000000    -0.480000000    -0.979000000
H    -1.438000000     0.379000000     0.519000000
H    -0.875000000     1.247000000    -0.996000000
C     1.016000000    -1.122000000    -0.927000000
H     0.378000000    -1.581000000    -1.679000000
C     2.289000000    -1.691000000    -0.685000000
H     2.687000000    -2.463000000    -1.338000000
C     3.118000000    -1.203000000     0.321000000
C     4.432000000    -1.847000000     0.647000000
O     4.906000000    -2.636000000    -0.119000000
O     4.935000000    -1.770000000     1.726000000
