17
-97.40814
C     2.582000000    -2.318000000    -1.373000000
H     3.667000000    -2.243000000    -1.360000000
C     1.862000000    -1.173000000    -1.154000000
H     2.344000000    -0.201000000    -1.076000000
C     0.522000000    -1.280000000    -0.920000000
C    -0.223000000    -0.066000000    -0.476000000
H     0.475000000     0.769000000    -0.381000000
H    -0.872000000     0.193000000    -1.315000000
H    -0.840000000    -0.263000000     0.403000000
C    -0.139000000    -2.488000000    -0.973000000
H    -1.211000000    -2.543000000    -0.805000000
C     0.594000000    -3.689000000    -1.151000000
H     0.121000000    -4.667000000    -1.135000000
C     1.973000000    -3.585000000    -1.386000000
C     2.806000000    -4.874000000    -1.614000000
O     2.174000000    -5.928000000    -1.918000000
O     3.933000000    -4.884000000    -1.236000000
