17
-87.11708
C     2.094000000    -1.074000000     0.817000000
H     2.856000000    -0.958000000     1.583000000
C     1.097000000    -0.093000000     0.887000000
H     1.004000000     0.629000000     1.694000000
C     0.054000000    -0.096000000    -0.057000000
C    -0.900000000     1.068000000     0.036000000
H    -1.249000000     1.176000000    -0.993000000
H    -1.709000000     0.962000000     0.762000000
H    -0.433000000     1.986000000     0.397000000
C     0.089000000    -1.041000000    -1.083000000
H    -0.717000000    -0.979000000    -1.810000000
C     1.138000000    -1.948000000    -1.176000000
H     1.160000000    -2.639000000    -2.015000000
C     2.086000000    -2.053000000    -0.139000000
C     3.127000000    -3.120000000    -0.123000000
O     3.180000000    -4.049000000    -0.892000000
O     3.844000000    -3.267000000     0.850000000
