17
-96.31913
C     0.883000000    -2.144000000    -1.531000000
H     0.939000000    -2.585000000    -2.523000000
C     0.045000000    -1.019000000    -1.280000000
H    -0.595000000    -0.643000000    -2.075000000
C    -0.084000000    -0.544000000    -0.030000000
C    -0.962000000     0.652000000     0.153000000
H    -0.654000000     1.237000000     1.022000000
H    -0.972000000     1.334000000    -0.699000000
H    -2.010000000     0.373000000     0.286000000
C     0.688000000    -1.046000000     1.004000000
H     0.551000000    -0.617000000     1.993000000
C     1.543000000    -2.180000000     0.765000000
H     2.171000000    -2.466000000     1.605000000
C     1.634000000    -2.713000000    -0.559000000
C     2.644000000    -3.744000000    -0.954000000
O     3.449000000    -4.184000000    -0.135000000
O     2.781000000    -4.042000000    -2.150000000
