17
-96.87678
C     3.164000000    -1.074000000    -0.700000000
H     4.157000000    -0.987000000    -0.267000000
C     2.193000000    -0.202000000    -0.238000000
H     2.474000000     0.690000000     0.315000000
C     0.827000000    -0.501000000    -0.513000000
C    -0.221000000     0.486000000    -0.046000000
H    -1.136000000     0.181000000    -0.560000000
H    -0.429000000     0.290000000     1.008000000
H     0.087000000     1.501000000    -0.302000000
C     0.536000000    -1.588000000    -1.288000000
H    -0.465000000    -1.834000000    -1.633000000
C     1.568000000    -2.326000000    -1.854000000
H     1.321000000    -3.108000000    -2.567000000
C     2.898000000    -2.150000000    -1.525000000
C     3.950000000    -3.182000000    -1.986000000
O     3.717000000    -3.935000000    -2.933000000
O     4.933000000    -3.348000000    -1.309000000
