17
-93.82629
C     2.426000000    -1.174000000     0.143000000
H     3.326000000    -1.362000000     0.722000000
C     1.485000000    -0.240000000     0.607000000
H     1.647000000     0.339000000     1.512000000
C     0.356000000    -0.031000000    -0.112000000
C    -0.730000000     1.014000000     0.213000000
H    -1.274000000     1.296000000    -0.691000000
H    -1.492000000     0.509000000     0.811000000
H    -0.242000000     1.809000000     0.780000000
C     0.057000000    -0.877000000    -1.162000000
H    -0.940000000    -0.789000000    -1.585000000
C     0.873000000    -1.958000000    -1.551000000
H     0.608000000    -2.673000000    -2.326000000
C     2.131000000    -1.998000000    -0.956000000
C     3.074000000    -3.018000000    -1.517000000
O     2.722000000    -3.724000000    -2.474000000
O     4.110000000    -3.178000000    -0.969000000
