17
-94.44911
C     2.098000000    -1.599000000     0.613000000
H     2.916000000    -1.748000000     1.313000000
C     1.257000000    -0.502000000     0.719000000
H     1.576000000     0.243000000     1.442000000
C     0.099000000    -0.307000000    -0.034000000
C    -0.671000000     1.002000000     0.080000000
H    -0.114000000     1.723000000    -0.522000000
H    -1.715000000     0.862000000    -0.209000000
H    -0.701000000     1.319000000     1.125000000
C    -0.162000000    -1.300000000    -1.015000000
H    -1.082000000    -1.180000000    -1.582000000
C     0.666000000    -2.414000000    -1.127000000
H     0.421000000    -3.278000000    -1.739000000
C     1.786000000    -2.595000000    -0.262000000
C     2.579000000    -3.843000000    -0.448000000
O     2.062000000    -4.764000000    -1.028000000
O     3.604000000    -4.000000000     0.160000000
