17
-94.46584
C     2.731000000    -1.342000000     0.998000000
H     3.381000000    -1.449000000     1.862000000
C     1.781000000    -0.316000000     0.960000000
H     1.722000000     0.355000000     1.812000000
C     0.750000000    -0.335000000     0.026000000
C    -0.351000000     0.754000000     0.095000000
H    -1.273000000     0.270000000     0.424000000
H     0.010000000     1.564000000     0.732000000
H    -0.558000000     1.168000000    -0.893000000
C     0.781000000    -1.288000000    -0.987000000
H    -0.006000000    -1.290000000    -1.737000000
C     1.843000000    -2.165000000    -1.090000000
H     1.934000000    -2.875000000    -1.908000000
C     2.830000000    -2.203000000    -0.088000000
C     3.828000000    -3.375000000    -0.026000000
O     3.723000000    -4.262000000    -0.841000000
O     4.546000000    -3.564000000     0.915000000
