17
-87.48119
C     2.637000000    -1.399000000     1.304000000
H     3.290000000    -1.342000000     2.171000000
C     1.524000000    -0.517000000     1.160000000
H     1.075000000     0.104000000     1.931000000
C     0.662000000    -0.661000000     0.077000000
C    -0.655000000     0.046000000     0.094000000
H    -1.425000000    -0.522000000    -0.432000000
H    -1.004000000     0.151000000     1.123000000
H    -0.504000000     0.967000000    -0.472000000
C     1.023000000    -1.590000000    -0.936000000
H     0.324000000    -1.731000000    -1.756000000
C     2.239000000    -2.302000000    -0.867000000
H     2.425000000    -3.036000000    -1.647000000
C     2.960000000    -2.332000000     0.288000000
C     4.144000000    -3.211000000     0.385000000
O     4.629000000    -3.668000000    -0.631000000
O     4.606000000    -3.423000000     1.436000000
