17
-94.16874
C     2.683000000    -1.158000000     0.902000000
H     3.214000000    -0.987000000     1.835000000
C     1.490000000    -0.445000000     0.617000000
H     1.199000000     0.300000000     1.353000000
C     0.798000000    -0.767000000    -0.510000000
C    -0.345000000     0.145000000    -0.962000000
H    -1.174000000    -0.256000000    -1.550000000
H    -0.694000000     0.581000000    -0.024000000
H     0.059000000     0.963000000    -1.563000000
C     1.270000000    -1.812000000    -1.365000000
H     0.799000000    -2.108000000    -2.299000000
C     2.408000000    -2.437000000    -1.079000000
H     2.680000000    -3.299000000    -1.684000000
C     3.195000000    -2.128000000     0.049000000
C     4.359000000    -3.062000000     0.349000000
O     4.577000000    -4.103000000    -0.326000000
O     4.956000000    -2.937000000     1.424000000
