17
-98.93732
C     1.956000000    -0.471000000     0.833000000
H     2.637000000    -0.177000000     1.628000000
C     0.890000000     0.358000000     0.541000000
H     0.674000000     1.219000000     1.169000000
C     0.112000000     0.098000000    -0.538000000
C    -1.064000000     0.999000000    -0.729000000
H    -1.736000000     0.573000000    -1.478000000
H    -1.651000000     0.979000000     0.192000000
H    -0.775000000     2.031000000    -0.938000000
C     0.346000000    -1.078000000    -1.247000000
H    -0.405000000    -1.289000000    -2.004000000
C     1.426000000    -1.883000000    -1.038000000
H     1.620000000    -2.699000000    -1.730000000
C     2.248000000    -1.599000000     0.063000000
C     3.495000000    -2.468000000     0.242000000
O     4.134000000    -2.956000000    -0.695000000
O     3.864000000    -2.552000000     1.426000000
