17
-95.34557
C     1.805000000    -1.334000000     2.195000000
H     2.443000000    -1.282000000     3.074000000
C     1.082000000    -0.206000000     1.687000000
H     1.097000000     0.744000000     2.216000000
C     0.360000000    -0.336000000     0.495000000
C    -0.516000000     0.745000000    -0.050000000
H    -0.206000000     1.778000000     0.125000000
H    -0.647000000     0.692000000    -1.133000000
H    -1.467000000     0.645000000     0.477000000
C     0.280000000    -1.574000000    -0.137000000
H    -0.387000000    -1.651000000    -0.992000000
C     0.948000000    -2.705000000     0.390000000
H     0.961000000    -3.644000000    -0.158000000
C     1.664000000    -2.591000000     1.586000000
C     2.470000000    -3.696000000     2.152000000
O     2.408000000    -4.841000000     1.773000000
O     3.344000000    -3.494000000     3.027000000
