17
-88.49355
C     1.942000000    -1.203000000     0.864000000
H     2.673000000    -2.001000000     0.762000000
C     1.116000000    -0.786000000    -0.136000000
H     1.256000000    -1.189000000    -1.136000000
C     0.147000000     0.231000000     0.086000000
C    -0.756000000     0.658000000    -1.073000000
H    -1.301000000    -0.204000000    -1.462000000
H    -1.479000000     1.444000000    -0.840000000
H    -0.146000000     0.914000000    -1.941000000
C     0.051000000     0.751000000     1.385000000
H    -0.620000000     1.522000000     1.755000000
C     0.909000000     0.378000000     2.431000000
H     0.857000000     0.878000000     3.395000000
C     1.854000000    -0.662000000     2.164000000
C     2.735000000    -1.117000000     3.234000000
O     2.396000000    -0.711000000     4.356000000
O     3.652000000    -1.830000000     3.148000000
