17
-93.22179
C     2.094000000    -0.830000000     2.426000000
H     2.279000000    -1.268000000     3.404000000
C     0.839000000    -0.300000000     2.021000000
H     0.053000000    -0.122000000     2.751000000
C     0.667000000    -0.064000000     0.662000000
C    -0.763000000     0.376000000     0.186000000
H    -1.000000000     0.054000000    -0.830000000
H    -1.627000000     0.119000000     0.802000000
H    -0.697000000     1.455000000     0.034000000
C     1.713000000    -0.179000000    -0.259000000
H     1.416000000     0.030000000    -1.284000000
C     2.963000000    -0.591000000     0.182000000
H     3.757000000    -0.656000000    -0.558000000
C     3.109000000    -1.002000000     1.522000000
C     4.388000000    -1.730000000     1.842000000
O     5.120000000    -2.200000000     0.999000000
O     4.733000000    -1.914000000     3.017000000
