17
-98.01528
C     1.864000000    -1.174000000     2.806000000
H     1.808000000    -1.395000000     3.869000000
C     0.669000000    -0.749000000     2.228000000
H    -0.234000000    -0.673000000     2.829000000
C     0.673000000    -0.294000000     0.917000000
C    -0.507000000     0.439000000     0.330000000
H    -0.254000000     1.494000000     0.454000000
H    -0.648000000     0.300000000    -0.744000000
H    -1.419000000     0.211000000     0.886000000
C     1.838000000    -0.422000000     0.176000000
H     1.939000000    -0.027000000    -0.831000000
C     2.971000000    -0.977000000     0.676000000
H     3.803000000    -1.132000000    -0.006000000
C     3.037000000    -1.263000000     2.058000000
C     4.368000000    -1.495000000     2.706000000
O     5.307000000    -1.861000000     1.994000000
O     4.475000000    -1.397000000     3.896000000
