17
-94.85116
C     1.044000000    -1.728000000     2.198000000
H     0.823000000    -2.334000000     3.073000000
C    -0.028000000    -0.987000000     1.685000000
H    -1.028000000    -1.049000000     2.107000000
C     0.179000000    -0.222000000     0.564000000
C    -0.939000000     0.612000000    -0.105000000
H    -0.954000000     0.406000000    -1.177000000
H    -1.958000000     0.380000000     0.212000000
H    -0.823000000     1.685000000     0.059000000
C     1.433000000    -0.188000000     0.004000000
H     1.545000000     0.382000000    -0.915000000
C     2.539000000    -0.733000000     0.635000000
H     3.540000000    -0.477000000     0.299000000
C     2.411000000    -1.506000000     1.798000000
C     3.589000000    -2.104000000     2.510000000
O     4.669000000    -1.672000000     2.232000000
O     3.450000000    -3.077000000     3.229000000
