17
-98.80970
C     0.790000000    -0.486000000    -2.029000000
H     0.792000000    -0.524000000    -3.115000000
C    -0.076000000     0.345000000    -1.332000000
H    -0.748000000     1.013000000    -1.865000000
C    -0.134000000     0.252000000     0.012000000
C    -1.102000000     1.020000000     0.802000000
H    -2.124000000     0.804000000     0.484000000
H    -1.002000000     0.796000000     1.867000000
H    -0.949000000     2.101000000     0.800000000
C     0.713000000    -0.653000000     0.689000000
H     0.728000000    -0.773000000     1.769000000
C     1.546000000    -1.448000000    -0.016000000
H     2.153000000    -2.188000000     0.499000000
C     1.583000000    -1.383000000    -1.415000000
C     2.491000000    -2.213000000    -2.251000000
O     3.378000000    -2.836000000    -1.708000000
O     2.312000000    -2.226000000    -3.485000000
