17
-98.80210
C     1.623000000    -0.738000000     1.410000000
H     1.837000000    -1.110000000     2.409000000
C     0.402000000    -0.133000000     1.202000000
H    -0.284000000    -0.087000000     2.044000000
C     0.075000000     0.356000000    -0.022000000
C    -1.285000000     0.980000000    -0.308000000
H    -1.806000000     1.077000000     0.647000000
H    -1.137000000     1.949000000    -0.790000000
H    -1.804000000     0.379000000    -1.057000000
C     0.947000000     0.267000000    -1.050000000
H     0.626000000     0.567000000    -2.044000000
C     2.175000000    -0.377000000    -0.856000000
H     2.925000000    -0.386000000    -1.643000000
C     2.543000000    -0.918000000     0.407000000
C     3.893000000    -1.603000000     0.605000000
O     4.715000000    -1.668000000    -0.325000000
O     4.035000000    -2.300000000     1.619000000
