17
-100.05133
C     1.669000000    -0.847000000     1.367000000
H     1.864000000    -1.442000000     2.256000000
C     0.369000000    -0.485000000     0.929000000
H    -0.463000000    -0.782000000     1.562000000
C     0.162000000     0.233000000    -0.237000000
C    -1.194000000     0.687000000    -0.667000000
H    -1.131000000     1.417000000    -1.476000000
H    -1.940000000    -0.078000000    -0.889000000
H    -1.676000000     1.241000000     0.141000000
C     1.235000000     0.498000000    -1.043000000
H     1.084000000     0.978000000    -2.006000000
C     2.501000000     0.033000000    -0.678000000
H     3.303000000     0.238000000    -1.383000000
C     2.738000000    -0.637000000     0.507000000
C     4.104000000    -1.193000000     0.842000000
O     5.000000000    -1.204000000    -0.007000000
O     4.317000000    -1.776000000     1.915000000
