17
-100.94625
C     1.771000000    -0.543000000     1.995000000
H     1.993000000    -0.859000000     3.011000000
C     0.447000000    -0.326000000     1.577000000
H    -0.329000000    -0.609000000     2.283000000
C     0.237000000     0.164000000     0.303000000
C    -1.168000000     0.429000000    -0.179000000
H    -1.121000000     1.131000000    -1.014000000
H    -1.695000000    -0.466000000    -0.515000000
H    -1.838000000     0.855000000     0.570000000
C     1.260000000     0.398000000    -0.599000000
H     1.146000000     0.808000000    -1.600000000
C     2.569000000     0.110000000    -0.187000000
H     3.407000000     0.165000000    -0.877000000
C     2.827000000    -0.364000000     1.142000000
C     4.213000000    -0.677000000     1.599000000
O     5.090000000    -0.534000000     0.772000000
O     4.477000000    -0.928000000     2.774000000
