17
-88.04529
C     2.841000000    -0.732000000     1.779000000
H     3.061000000    -1.300000000     2.680000000
C     1.498000000    -0.558000000     1.425000000
H     0.689000000    -1.015000000     1.989000000
C     1.113000000     0.241000000     0.383000000
C    -0.342000000     0.289000000     0.007000000
H    -0.312000000     1.073000000    -0.753000000
H    -0.620000000    -0.690000000    -0.388000000
H    -0.983000000     0.505000000     0.864000000
C     2.204000000     0.780000000    -0.371000000
H     1.865000000     1.397000000    -1.199000000
C     3.531000000     0.527000000    -0.123000000
H     4.366000000     0.951000000    -0.674000000
C     3.825000000    -0.292000000     0.916000000
C     5.239000000    -0.723000000     1.193000000
O     6.119000000    -0.494000000     0.404000000
O     5.581000000    -1.201000000     2.263000000
