17
-98.48179
C     2.329000000     0.519000000     1.363000000
H     2.688000000     0.514000000     2.389000000
C     0.938000000     0.268000000     1.152000000
H     0.297000000     0.100000000     2.014000000
C     0.396000000     0.416000000    -0.110000000
C    -1.145000000     0.221000000    -0.278000000
H    -1.484000000    -0.230000000     0.657000000
H    -1.583000000     1.206000000    -0.453000000
H    -1.387000000    -0.369000000    -1.165000000
C     1.244000000     0.582000000    -1.164000000
H     0.787000000     0.557000000    -2.150000000
C     2.614000000     0.737000000    -1.002000000
H     3.292000000     0.886000000    -1.838000000
C     3.188000000     0.759000000     0.308000000
C     4.679000000     0.859000000     0.557000000
O     5.441000000     1.143000000    -0.337000000
O     5.085000000     0.649000000     1.693000000
