17
-97.86012
C     2.105000000    -0.761000000     1.647000000
H     2.220000000    -1.237000000     2.618000000
C     0.897000000    -0.247000000     1.181000000
H     0.017000000    -0.500000000     1.767000000
C     0.759000000     0.371000000    -0.039000000
C    -0.588000000     0.843000000    -0.444000000
H    -0.841000000     1.898000000    -0.320000000
H    -0.770000000     0.711000000    -1.513000000
H    -1.381000000     0.303000000     0.078000000
C     1.852000000     0.529000000    -0.824000000
H     1.722000000     0.978000000    -1.805000000
C     3.099000000     0.017000000    -0.395000000
H     3.960000000     0.158000000    -1.043000000
C     3.264000000    -0.597000000     0.822000000
C     4.655000000    -1.099000000     1.185000000
O     5.497000000    -1.372000000     0.341000000
O     4.966000000    -1.012000000     2.362000000
