17
-86.58278
C     2.458000000     0.957000000     1.780000000
H     2.791000000     1.025000000     2.813000000
C     1.242000000     0.267000000     1.452000000
H     0.694000000    -0.153000000     2.292000000
C     0.690000000     0.337000000     0.159000000
C    -0.511000000    -0.440000000    -0.219000000
H    -0.303000000    -1.508000000    -0.134000000
H    -1.245000000    -0.249000000     0.567000000
H    -0.880000000    -0.044000000    -1.168000000
C     1.393000000     0.957000000    -0.804000000
H     1.094000000     0.863000000    -1.845000000
C     2.623000000     1.592000000    -0.469000000
H     3.158000000     1.995000000    -1.325000000
C     3.166000000     1.606000000     0.841000000
C     4.417000000     2.333000000     1.127000000
O     5.127000000     2.779000000     0.253000000
O     4.864000000     2.180000000     2.238000000
