17
-94.30125
C     1.522000000    -0.652000000     1.961000000
H     1.541000000    -0.858000000     3.028000000
C     0.310000000    -0.290000000     1.358000000
H    -0.622000000    -0.176000000     1.906000000
C     0.344000000     0.057000000     0.019000000
C    -1.019000000     0.373000000    -0.627000000
H    -1.533000000     1.198000000    -0.130000000
H    -0.760000000     0.744000000    -1.621000000
H    -1.781000000    -0.406000000    -0.693000000
C     1.549000000    -0.038000000    -0.675000000
H     1.646000000     0.286000000    -1.708000000
C     2.754000000    -0.317000000    -0.092000000
H     3.681000000    -0.394000000    -0.654000000
C     2.752000000    -0.687000000     1.237000000
C     3.964000000    -1.064000000     2.058000000
O     5.105000000    -1.092000000     1.558000000
O     3.883000000    -1.223000000     3.257000000
