17
-87.31525
C     2.149000000     0.425000000     2.638000000
H     2.143000000     0.861000000     3.634000000
C     0.925000000     0.300000000     1.983000000
H     0.047000000     0.484000000     2.596000000
C     0.833000000    -0.120000000     0.701000000
C    -0.416000000    -0.072000000    -0.094000000
H    -0.432000000    -0.932000000    -0.767000000
H    -1.185000000    -0.235000000     0.664000000
H    -0.503000000     0.884000000    -0.615000000
C     2.043000000    -0.447000000    -0.022000000
H     1.905000000    -0.646000000    -1.082000000
C     3.290000000    -0.438000000     0.627000000
H     4.199000000    -0.712000000     0.098000000
C     3.349000000     0.105000000     1.923000000
C     4.685000000     0.204000000     2.650000000
O     5.662000000    -0.009000000     2.069000000
O     4.591000000     0.303000000     3.844000000
