17
-85.46396
C     1.379000000    -0.190000000     2.327000000
H     1.332000000    -0.214000000     3.413000000
C     0.259000000     0.054000000     1.581000000
H    -0.648000000     0.167000000     2.169000000
C     0.305000000     0.001000000     0.209000000
C    -1.084000000     0.091000000    -0.572000000
H    -0.988000000     0.875000000    -1.326000000
H    -1.269000000    -0.836000000    -1.119000000
H    -1.931000000     0.305000000     0.082000000
C     1.504000000    -0.028000000    -0.447000000
H     1.485000000     0.049000000    -1.531000000
C     2.682000000    -0.062000000     0.287000000
H     3.579000000     0.085000000    -0.310000000
C     2.664000000    -0.201000000     1.677000000
C     3.871000000    -0.125000000     2.491000000
O     4.996000000     0.008000000     1.994000000
O     3.800000000     0.070000000     3.662000000
