17
-87.35627
C     1.654000000     0.667000000     2.331000000
H     1.846000000     0.737000000     3.399000000
C     0.499000000     0.014000000     1.866000000
H    -0.289000000    -0.314000000     2.540000000
C     0.288000000    -0.076000000     0.500000000
C    -1.063000000    -0.369000000    -0.121000000
H    -1.787000000     0.076000000     0.564000000
H    -1.071000000     0.145000000    -1.085000000
H    -1.082000000    -1.451000000    -0.270000000
C     1.347000000     0.257000000    -0.378000000
H     1.261000000     0.008000000    -1.432000000
C     2.572000000     0.697000000     0.092000000
H     3.412000000     0.887000000    -0.572000000
C     2.721000000     1.030000000     1.417000000
C     4.022000000     1.544000000     1.884000000
O     4.888000000     1.941000000     1.116000000
O     4.361000000     1.615000000     3.048000000
