17
-94.56264
C     1.319000000     0.044000000     2.452000000
H     1.286000000    -0.153000000     3.520000000
C     0.152000000     0.079000000     1.646000000
H    -0.829000000    -0.064000000     2.092000000
C     0.199000000     0.212000000     0.220000000
C    -1.084000000     0.176000000    -0.605000000
H    -1.766000000     0.954000000    -0.255000000
H    -0.993000000     0.416000000    -1.666000000
H    -1.611000000    -0.781000000    -0.592000000
C     1.435000000     0.364000000    -0.357000000
H     1.480000000     0.441000000    -1.440000000
C     2.587000000     0.375000000     0.419000000
H     3.524000000     0.649000000    -0.060000000
C     2.542000000     0.180000000     1.829000000
C     3.811000000     0.257000000     2.693000000
O     4.873000000     0.409000000     2.120000000
O     3.818000000     0.226000000     3.882000000
