17
-96.98570
C     1.288000000     0.422000000     2.074000000
H     1.197000000     0.796000000     3.090000000
C     0.060000000     0.280000000     1.391000000
H    -0.870000000     0.507000000     1.906000000
C     0.064000000    -0.026000000    -0.010000000
C    -1.257000000    -0.050000000    -0.726000000
H    -2.042000000    -0.159000000     0.025000000
H    -1.402000000     0.893000000    -1.257000000
H    -1.432000000    -0.881000000    -1.412000000
C     1.245000000    -0.150000000    -0.685000000
H     1.175000000    -0.125000000    -1.770000000
C     2.418000000    -0.085000000     0.025000000
H     3.329000000    -0.115000000    -0.567000000
C     2.456000000     0.165000000     1.409000000
C     3.811000000     0.271000000     2.086000000
O     4.817000000    -0.017000000     1.417000000
O     3.936000000     0.875000000     3.140000000
