17
-91.40007
C     1.235000000    -1.076000000     2.247000000
H     1.259000000    -1.200000000     3.327000000
C     0.131000000    -0.465000000     1.662000000
H    -0.711000000    -0.102000000     2.247000000
C     0.087000000    -0.261000000     0.267000000
C    -1.245000000     0.337000000    -0.413000000
H    -1.223000000     1.427000000    -0.349000000
H    -1.392000000     0.161000000    -1.480000000
H    -2.184000000    -0.078000000    -0.039000000
C     1.263000000    -0.584000000    -0.524000000
H     1.298000000    -0.552000000    -1.610000000
C     2.388000000    -1.130000000     0.095000000
H     3.272000000    -1.386000000    -0.484000000
C     2.397000000    -1.383000000     1.497000000
C     3.630000000    -2.053000000     2.150000000
O     4.536000000    -2.418000000     1.407000000
O     3.494000000    -2.548000000     3.261000000
