17
-94.91970
C     2.255000000    -0.242000000     1.816000000
H     2.414000000    -0.361000000     2.885000000
C     0.983000000    -0.359000000     1.350000000
H     0.202000000    -0.665000000     2.042000000
C     0.622000000    -0.022000000     0.044000000
C    -0.862000000     0.095000000    -0.262000000
H    -1.076000000     0.926000000    -0.937000000
H    -1.297000000    -0.835000000    -0.634000000
H    -1.369000000     0.213000000     0.698000000
C     1.648000000     0.211000000    -0.831000000
H     1.454000000     0.212000000    -1.901000000
C     2.923000000     0.429000000    -0.337000000
H     3.672000000     0.811000000    -1.027000000
C     3.257000000     0.190000000     0.996000000
C     4.697000000     0.351000000     1.487000000
O     5.588000000     0.633000000     0.689000000
O     5.020000000    -0.059000000     2.611000000
