17
-93.54852
C     1.150000000    -1.171000000     2.166000000
H     1.199000000    -1.229000000     3.250000000
C     0.012000000    -0.543000000     1.649000000
H    -0.784000000    -0.236000000     2.323000000
C    -0.109000000    -0.295000000     0.263000000
C    -1.389000000     0.323000000    -0.338000000
H    -1.316000000     1.403000000    -0.486000000
H    -1.524000000    -0.007000000    -1.370000000
H    -2.299000000     0.086000000     0.216000000
C     0.955000000    -0.610000000    -0.575000000
H     1.007000000    -0.329000000    -1.623000000
C     2.101000000    -1.147000000    -0.030000000
H     2.927000000    -1.393000000    -0.692000000
C     2.256000000    -1.516000000     1.309000000
C     3.618000000    -1.972000000     1.789000000
O     4.685000000    -1.914000000     1.191000000
O     3.665000000    -2.190000000     2.997000000
