17
-91.78786
C     1.046000000    -1.045000000     2.303000000
H     0.753000000    -1.271000000     3.324000000
C     0.085000000    -0.462000000     1.512000000
H    -0.811000000    -0.065000000     1.981000000
C     0.200000000    -0.378000000     0.116000000
C    -0.832000000     0.324000000    -0.686000000
H    -0.457000000     0.803000000    -1.593000000
H    -1.690000000    -0.299000000    -0.947000000
H    -1.148000000     1.195000000    -0.107000000
C     1.288000000    -0.910000000    -0.530000000
H     1.326000000    -0.969000000    -1.615000000
C     2.195000000    -1.565000000     0.297000000
H     3.087000000    -2.040000000    -0.103000000
C     2.077000000    -1.674000000     1.694000000
C     2.917000000    -2.640000000     2.505000000
O     3.683000000    -3.385000000     1.955000000
O     2.851000000    -2.650000000     3.721000000
