17
-92.19487
C     0.789000000    -0.532000000     2.431000000
H     0.824000000    -0.404000000     3.510000000
C    -0.226000000     0.009000000     1.608000000
H    -1.058000000     0.542000000     2.061000000
C    -0.050000000     0.075000000     0.217000000
C    -1.025000000     0.722000000    -0.666000000
H    -1.012000000     1.781000000    -0.398000000
H    -0.764000000     0.723000000    -1.727000000
H    -2.046000000     0.336000000    -0.646000000
C     1.048000000    -0.573000000    -0.366000000
H     1.062000000    -0.475000000    -1.448000000
C     2.083000000    -1.148000000     0.360000000
H     2.868000000    -1.643000000    -0.206000000
C     1.934000000    -1.127000000     1.746000000
C     3.078000000    -1.612000000     2.591000000
O     3.964000000    -2.270000000     2.104000000
O     3.301000000    -1.089000000     3.724000000
