17
-93.79069
C     0.118000000    -1.648000000     2.157000000
H    -0.274000000    -1.866000000     3.147000000
C    -0.563000000    -0.760000000     1.303000000
H    -1.453000000    -0.242000000     1.649000000
C    -0.088000000    -0.479000000     0.039000000
C    -0.739000000     0.376000000    -0.987000000
H    -0.674000000    -0.064000000    -1.984000000
H    -1.795000000     0.593000000    -0.816000000
H    -0.408000000     1.407000000    -1.124000000
C     1.160000000    -1.044000000    -0.342000000
H     1.572000000    -0.850000000    -1.329000000
C     1.847000000    -1.970000000     0.492000000
H     2.721000000    -2.549000000     0.203000000
C     1.288000000    -2.288000000     1.715000000
C     1.955000000    -3.255000000     2.557000000
O     2.791000000    -4.032000000     2.162000000
O     1.573000000    -3.368000000     3.721000000
