17
-94.38293
C     1.083000000    -2.608000000    -1.171000000
H     0.737000000    -3.299000000    -1.935000000
C     0.369000000    -1.419000000    -1.004000000
H    -0.435000000    -1.118000000    -1.671000000
C     0.556000000    -0.662000000     0.169000000
C    -0.174000000     0.676000000     0.405000000
H     0.480000000     1.499000000     0.108000000
H    -1.143000000     0.797000000    -0.085000000
H    -0.475000000     0.771000000     1.450000000
C     1.512000000    -1.038000000     1.144000000
H     1.622000000    -0.403000000     2.020000000
C     2.192000000    -2.235000000     0.919000000
H     2.857000000    -2.580000000     1.707000000
C     1.997000000    -3.048000000    -0.197000000
C     2.671000000    -4.380000000    -0.373000000
O     3.585000000    -4.609000000     0.392000000
O     2.520000000    -5.018000000    -1.368000000
