17
-92.57034
C     0.120000000    -1.086000000     2.288000000
H    -0.165000000    -1.239000000     3.326000000
C    -0.441000000    -0.085000000     1.531000000
H    -1.283000000     0.458000000     1.953000000
C    -0.137000000    -0.006000000     0.202000000
C    -0.838000000     0.960000000    -0.697000000
H    -0.190000000     1.824000000    -0.856000000
H    -1.096000000     0.505000000    -1.656000000
H    -1.719000000     1.394000000    -0.219000000
C     0.958000000    -0.670000000    -0.310000000
H     1.270000000    -0.581000000    -1.348000000
C     1.679000000    -1.587000000     0.517000000
H     2.426000000    -2.259000000     0.103000000
C     1.223000000    -1.861000000     1.853000000
C     1.802000000    -2.890000000     2.807000000
O     2.814000000    -3.552000000     2.489000000
O     1.392000000    -3.059000000     3.918000000
