17
-84.82668
C    -0.341000000    -0.825000000     2.561000000
H    -0.848000000    -0.739000000     3.518000000
C    -0.569000000     0.105000000     1.540000000
H    -1.250000000     0.943000000     1.663000000
C    -0.033000000    -0.011000000     0.294000000
C    -0.431000000     0.887000000    -0.874000000
H    -1.450000000     1.257000000    -0.747000000
H     0.257000000     1.735000000    -0.912000000
H    -0.349000000     0.272000000    -1.773000000
C     0.777000000    -1.062000000     0.056000000
H     1.284000000    -1.189000000    -0.897000000
C     1.090000000    -1.965000000     1.046000000
H     1.809000000    -2.766000000     0.891000000
C     0.518000000    -1.887000000     2.337000000
C     1.117000000    -2.692000000     3.440000000
O     2.108000000    -3.372000000     3.313000000
O     0.654000000    -2.708000000     4.532000000
