17
-92.30167
C     0.502000000    -1.775000000     2.282000000
H     0.061000000    -2.000000000     3.249000000
C    -0.086000000    -0.812000000     1.551000000
H    -1.043000000    -0.380000000     1.833000000
C     0.339000000    -0.566000000     0.261000000
C    -0.394000000     0.407000000    -0.579000000
H    -1.470000000     0.236000000    -0.501000000
H    -0.131000000     1.450000000    -0.393000000
H    -0.126000000     0.365000000    -1.637000000
C     1.456000000    -1.164000000    -0.219000000
H     1.855000000    -0.927000000    -1.203000000
C     2.153000000    -2.056000000     0.553000000
H     2.998000000    -2.580000000     0.114000000
C     1.657000000    -2.389000000     1.844000000
C     2.204000000    -3.573000000     2.651000000
O     3.029000000    -4.383000000     2.278000000
O     1.880000000    -3.619000000     3.879000000
