17
-97.73145
C     0.092000000    -1.994000000     2.226000000
H    -0.383000000    -2.287000000     3.158000000
C    -0.485000000    -0.933000000     1.512000000
H    -1.426000000    -0.534000000     1.879000000
C     0.049000000    -0.620000000     0.266000000
C    -0.610000000     0.495000000    -0.506000000
H    -1.526000000     0.101000000    -0.952000000
H    -0.869000000     1.298000000     0.187000000
H    -0.087000000     0.964000000    -1.342000000
C     1.184000000    -1.262000000    -0.226000000
H     1.736000000    -0.927000000    -1.100000000
C     1.689000000    -2.361000000     0.439000000
H     2.477000000    -2.904000000    -0.076000000
C     1.152000000    -2.728000000     1.713000000
C     1.721000000    -3.856000000     2.493000000
O     2.922000000    -4.026000000     2.369000000
O     1.101000000    -4.422000000     3.391000000
