17
-94.51970
C     0.837000000    -2.047000000     1.562000000
H     0.671000000    -2.651000000     2.450000000
C    -0.089000000    -1.045000000     1.211000000
H    -0.859000000    -0.857000000     1.954000000
C     0.056000000    -0.315000000     0.074000000
C    -0.896000000     0.826000000    -0.239000000
H    -0.420000000     1.764000000     0.057000000
H    -1.186000000     0.864000000    -1.291000000
H    -1.824000000     0.751000000     0.332000000
C     1.101000000    -0.559000000    -0.747000000
H     1.301000000     0.167000000    -1.531000000
C     2.007000000    -1.676000000    -0.462000000
H     2.872000000    -1.879000000    -1.087000000
C     1.848000000    -2.425000000     0.680000000
C     2.890000000    -3.554000000     0.916000000
O     3.593000000    -3.871000000    -0.016000000
O     3.096000000    -4.088000000     2.010000000
