17
-100.30494
C     0.957000000    -1.916000000    -2.121000000
H     1.460000000    -2.040000000    -3.077000000
C     0.496000000    -0.651000000    -1.777000000
H     0.612000000     0.066000000    -2.586000000
C     0.091000000    -0.326000000    -0.504000000
C    -0.387000000     1.044000000    -0.199000000
H    -0.922000000     0.936000000     0.747000000
H     0.456000000     1.707000000     0.012000000
H    -1.007000000     1.510000000    -0.967000000
C     0.110000000    -1.322000000     0.482000000
H    -0.087000000    -1.107000000     1.529000000
C     0.602000000    -2.604000000     0.147000000
H     0.753000000    -3.234000000     1.020000000
C     1.024000000    -2.935000000    -1.138000000
C     1.663000000    -4.285000000    -1.462000000
O     1.559000000    -5.270000000    -0.663000000
O     2.329000000    -4.327000000    -2.491000000
