17
-98.58048
C     0.734000000    -1.710000000     1.644000000
H     0.574000000    -2.263000000     2.566000000
C    -0.286000000    -0.931000000     1.085000000
H    -1.181000000    -0.785000000     1.685000000
C    -0.100000000    -0.249000000    -0.087000000
C    -1.198000000     0.681000000    -0.616000000
H    -0.881000000     1.725000000    -0.561000000
H    -1.417000000     0.502000000    -1.671000000
H    -2.116000000     0.616000000    -0.028000000
C     1.140000000    -0.340000000    -0.760000000
H     1.299000000     0.189000000    -1.697000000
C     2.118000000    -1.169000000    -0.241000000
H     3.079000000    -1.223000000    -0.746000000
C     1.969000000    -1.811000000     1.036000000
C     3.071000000    -2.621000000     1.690000000
O     4.195000000    -2.666000000     1.156000000
O     2.980000000    -2.919000000     2.860000000
