17
-90.37301
C     0.250000000    -1.582000000     1.923000000
H     0.248000000    -1.720000000     3.001000000
C    -0.601000000    -0.672000000     1.314000000
H    -1.427000000    -0.198000000     1.838000000
C    -0.309000000    -0.240000000     0.016000000
C    -1.150000000     0.739000000    -0.638000000
H    -2.048000000     0.875000000    -0.032000000
H    -0.636000000     1.697000000    -0.742000000
H    -1.413000000     0.553000000    -1.682000000
C     0.643000000    -0.959000000    -0.716000000
H     0.778000000    -0.700000000    -1.763000000
C     1.351000000    -1.956000000    -0.141000000
H     2.138000000    -2.474000000    -0.684000000
C     1.172000000    -2.260000000     1.213000000
C     1.975000000    -3.324000000     1.879000000
O     2.859000000    -3.986000000     1.318000000
O     1.935000000    -3.434000000     3.081000000
