17
-94.19226
C     0.237000000    -1.251000000     2.091000000
H    -0.048000000    -1.509000000     3.108000000
C    -0.488000000    -0.326000000     1.365000000
H    -1.294000000     0.286000000     1.762000000
C    -0.103000000    -0.136000000     0.077000000
C    -0.996000000     0.713000000    -0.731000000
H    -0.578000000     0.903000000    -1.722000000
H    -2.027000000     0.365000000    -0.827000000
H    -0.990000000     1.756000000    -0.408000000
C     0.972000000    -0.830000000    -0.473000000
H     1.222000000    -0.644000000    -1.514000000
C     1.647000000    -1.728000000     0.273000000
H     2.440000000    -2.334000000    -0.157000000
C     1.254000000    -1.969000000     1.590000000
C     2.080000000    -2.875000000     2.492000000
O     3.191000000    -3.209000000     2.077000000
O     1.673000000    -3.238000000     3.561000000
