17
-95.29293
C     0.831000000    -2.328000000     2.028000000
H     0.654000000    -2.702000000     3.033000000
C    -0.053000000    -1.281000000     1.602000000
H    -0.866000000    -0.921000000     2.227000000
C     0.167000000    -0.611000000     0.390000000
C    -0.817000000     0.348000000    -0.105000000
H    -1.864000000     0.213000000     0.173000000
H    -0.590000000     1.346000000     0.274000000
H    -0.740000000     0.410000000    -1.192000000
C     1.131000000    -1.090000000    -0.453000000
H     1.271000000    -0.686000000    -1.452000000
C     1.918000000    -2.178000000    -0.061000000
H     2.670000000    -2.543000000    -0.756000000
C     1.839000000    -2.791000000     1.195000000
C     2.585000000    -4.082000000     1.480000000
O     3.097000000    -4.718000000     0.534000000
O     2.637000000    -4.546000000     2.579000000
