17
-96.56007
C     1.298000000    -1.782000000     2.206000000
H     1.331000000    -1.745000000     3.292000000
C     0.424000000    -0.938000000     1.601000000
H    -0.293000000    -0.358000000     2.176000000
C     0.289000000    -0.940000000     0.178000000
C    -0.818000000    -0.150000000    -0.471000000
H    -1.659000000    -0.787000000    -0.754000000
H    -1.128000000     0.714000000     0.120000000
H    -0.529000000     0.204000000    -1.463000000
C     1.134000000    -1.664000000    -0.592000000
H     1.059000000    -1.716000000    -1.675000000
C     2.023000000    -2.527000000     0.053000000
H     2.581000000    -3.075000000    -0.702000000
C     2.159000000    -2.544000000     1.452000000
C     3.123000000    -3.457000000     2.130000000
O     3.666000000    -4.337000000     1.478000000
O     3.223000000    -3.363000000     3.347000000
