17
-93.21174
C     1.988000000    -1.421000000     1.556000000
H     2.367000000    -1.479000000     2.573000000
C     0.947000000    -0.453000000     1.371000000
H     0.474000000     0.012000000     2.233000000
C     0.519000000    -0.158000000     0.081000000
C    -0.641000000     0.780000000    -0.128000000
H    -1.081000000     0.700000000    -1.124000000
H    -1.391000000     0.526000000     0.625000000
H    -0.262000000     1.799000000    -0.030000000
C     1.080000000    -0.746000000    -1.006000000
H     0.624000000    -0.744000000    -1.993000000
C     2.192000000    -1.631000000    -0.865000000
H     2.595000000    -2.151000000    -1.730000000
C     2.682000000    -1.915000000     0.459000000
C     3.749000000    -2.921000000     0.694000000
O     4.312000000    -3.354000000    -0.311000000
O     4.273000000    -3.058000000     1.793000000
