17
-91.10334
C     0.872000000    -2.188000000     2.102000000
H     0.661000000    -2.452000000     3.135000000
C     0.198000000    -1.029000000     1.594000000
H    -0.456000000    -0.412000000     2.204000000
C     0.422000000    -0.684000000     0.226000000
C    -0.342000000     0.432000000    -0.469000000
H    -0.032000000     0.543000000    -1.510000000
H    -1.424000000     0.290000000    -0.492000000
H    -0.094000000     1.419000000    -0.072000000
C     1.125000000    -1.551000000    -0.552000000
H     1.250000000    -1.389000000    -1.620000000
C     1.648000000    -2.723000000    -0.087000000
H     2.220000000    -3.474000000    -0.625000000
C     1.565000000    -3.006000000     1.271000000
C     2.254000000    -4.257000000     1.841000000
O     3.078000000    -4.823000000     1.178000000
O     2.215000000    -4.416000000     3.044000000
