17
-88.95689
C     0.872000000    -2.349000000    -2.142000000
H     0.913000000    -2.591000000    -3.201000000
C     0.497000000    -1.129000000    -1.711000000
H     0.420000000    -0.236000000    -2.327000000
C     0.229000000    -0.911000000    -0.358000000
C     0.067000000     0.572000000     0.173000000
H    -0.083000000     0.494000000     1.252000000
H     0.959000000     1.183000000     0.024000000
H    -0.659000000     1.174000000    -0.377000000
C     0.511000000    -1.941000000     0.552000000
H     0.209000000    -1.887000000     1.595000000
C     1.009000000    -3.185000000     0.141000000
H     1.150000000    -4.011000000     0.834000000
C     1.129000000    -3.385000000    -1.232000000
C     1.635000000    -4.719000000    -1.673000000
O     1.899000000    -5.581000000    -0.857000000
O     2.000000000    -4.847000000    -2.813000000
