17
-88.72459
C     2.136000000    -2.251000000     1.591000000
H     2.467000000    -2.562000000     2.578000000
C     1.070000000    -1.404000000     1.490000000
H     0.606000000    -0.995000000     2.384000000
C     0.733000000    -1.054000000     0.166000000
C    -0.466000000    -0.171000000    -0.006000000
H    -1.406000000    -0.725000000     0.027000000
H    -0.372000000     0.598000000     0.764000000
H    -0.393000000     0.265000000    -1.005000000
C     1.419000000    -1.612000000    -0.917000000
H     1.127000000    -1.336000000    -1.927000000
C     2.517000000    -2.472000000    -0.785000000
H     2.979000000    -2.854000000    -1.691000000
C     2.944000000    -2.678000000     0.532000000
C     4.210000000    -3.436000000     0.774000000
O     5.065000000    -3.545000000    -0.056000000
O     4.580000000    -3.690000000     1.925000000
