17
-99.79777
C     1.522000000    -1.556000000     1.015000000
H     1.790000000    -2.174000000     1.868000000
C     0.388000000    -0.733000000     1.023000000
H    -0.210000000    -0.690000000     1.930000000
C     0.115000000    -0.004000000    -0.164000000
C    -1.154000000     0.828000000    -0.189000000
H    -0.790000000     1.848000000    -0.047000000
H    -1.695000000     0.677000000    -1.126000000
H    -1.794000000     0.508000000     0.635000000
C     0.984000000    -0.203000000    -1.277000000
H     0.772000000     0.320000000    -2.207000000
C     2.110000000    -1.057000000    -1.250000000
H     2.837000000    -1.096000000    -2.057000000
C     2.403000000    -1.783000000    -0.084000000
C     3.579000000    -2.717000000     0.028000000
O     4.253000000    -2.801000000    -0.995000000
O     3.859000000    -3.314000000     1.052000000
