17
-93.43003
C     1.920000000    -1.456000000     1.307000000
H     2.275000000    -1.949000000     2.208000000
C     0.709000000    -0.778000000     1.327000000
H     0.185000000    -0.525000000     2.245000000
C     0.168000000    -0.257000000     0.116000000
C    -1.199000000     0.456000000     0.008000000
H    -1.597000000     0.710000000     0.993000000
H    -1.054000000     1.339000000    -0.619000000
H    -1.908000000    -0.074000000    -0.631000000
C     0.974000000    -0.375000000    -1.010000000
H     0.600000000     0.007000000    -1.957000000
C     2.222000000    -0.961000000    -1.031000000
H     2.716000000    -1.037000000    -1.996000000
C     2.716000000    -1.535000000     0.150000000
C     4.018000000    -2.237000000     0.318000000
O     4.993000000    -2.037000000    -0.395000000
O     4.159000000    -3.027000000     1.218000000
