17
-90.56440
C     1.093000000    -2.165000000    -1.854000000
H     1.592000000    -2.497000000    -2.761000000
C     0.447000000    -0.944000000    -1.576000000
H     0.343000000    -0.154000000    -2.316000000
C    -0.062000000    -0.649000000    -0.279000000
C    -0.613000000     0.683000000     0.072000000
H    -0.782000000     0.726000000     1.150000000
H     0.068000000     1.480000000    -0.234000000
H    -1.599000000     0.845000000    -0.368000000
C     0.143000000    -1.530000000     0.719000000
H    -0.191000000    -1.316000000     1.731000000
C     0.680000000    -2.836000000     0.508000000
H     0.582000000    -3.557000000     1.315000000
C     1.199000000    -3.125000000    -0.738000000
C     2.038000000    -4.391000000    -0.918000000
O     2.341000000    -5.060000000     0.047000000
O     2.470000000    -4.671000000    -1.982000000
