17
-99.90277
C     1.274000000    -1.157000000     1.575000000
H     1.648000000    -1.313000000     2.583000000
C     0.055000000    -0.574000000     1.311000000
H    -0.609000000    -0.375000000     2.149000000
C    -0.217000000    -0.226000000     0.004000000
C    -1.578000000     0.404000000    -0.344000000
H    -1.763000000     0.303000000    -1.415000000
H    -2.380000000    -0.101000000     0.199000000
H    -1.661000000     1.472000000    -0.131000000
C     0.752000000    -0.538000000    -0.992000000
H     0.583000000    -0.300000000    -2.040000000
C     1.865000000    -1.278000000    -0.675000000
H     2.482000000    -1.614000000    -1.504000000
C     2.193000000    -1.543000000     0.601000000
C     3.553000000    -2.174000000     0.931000000
O     4.216000000    -2.666000000     0.042000000
O     3.936000000    -2.107000000     2.117000000
