17
-90.20791
C     0.992000000    -2.053000000    -1.325000000
H     1.287000000    -2.322000000    -2.336000000
C     0.434000000    -0.792000000    -1.211000000
H     0.250000000    -0.221000000    -2.118000000
C     0.100000000    -0.269000000     0.009000000
C    -0.727000000     1.003000000     0.125000000
H    -1.665000000     0.896000000    -0.424000000
H    -0.927000000     1.068000000     1.196000000
H    -0.255000000     1.917000000    -0.243000000
C     0.228000000    -1.080000000     1.139000000
H    -0.010000000    -0.616000000     2.092000000
C     0.721000000    -2.362000000     1.064000000
H     0.836000000    -2.918000000     1.991000000
C     1.243000000    -2.839000000    -0.156000000
C     2.003000000    -4.104000000    -0.212000000
O     2.360000000    -4.698000000     0.785000000
O     2.469000000    -4.425000000    -1.269000000
