17
-94.20192
C     1.086000000    -1.787000000     1.030000000
H     1.198000000    -2.387000000     1.930000000
C     0.122000000    -0.807000000     0.953000000
H    -0.604000000    -0.691000000     1.754000000
C     0.044000000    -0.070000000    -0.222000000
C    -1.174000000     0.758000000    -0.361000000
H    -2.064000000     0.136000000    -0.479000000
H    -1.329000000     1.395000000     0.512000000
H    -1.189000000     1.385000000    -1.255000000
C     0.961000000    -0.254000000    -1.230000000
H     0.873000000     0.319000000    -2.150000000
C     1.920000000    -1.226000000    -1.065000000
H     2.572000000    -1.389000000    -1.920000000
C     2.075000000    -1.922000000     0.058000000
C     3.212000000    -2.887000000     0.207000000
O     3.963000000    -3.128000000    -0.711000000
O     3.375000000    -3.363000000     1.298000000
