17
-92.72951
C     1.881000000    -1.652000000     1.057000000
H     2.221000000    -2.208000000     1.927000000
C     0.665000000    -0.950000000     1.158000000
H     0.128000000    -0.887000000     2.101000000
C     0.190000000    -0.308000000    -0.011000000
C    -1.075000000     0.448000000    -0.035000000
H    -0.868000000     1.498000000     0.186000000
H    -1.628000000     0.232000000    -0.951000000
H    -1.731000000     0.191000000     0.799000000
C     0.914000000    -0.501000000    -1.254000000
H     0.495000000    -0.128000000    -2.185000000
C     2.090000000    -1.273000000    -1.296000000
H     2.587000000    -1.451000000    -2.247000000
C     2.622000000    -1.849000000    -0.141000000
C     3.861000000    -2.669000000    -0.160000000
O     4.541000000    -2.652000000    -1.163000000
O     4.393000000    -3.117000000     0.840000000
