17
-98.19956
C     1.913000000    -1.969000000     1.575000000
H     2.009000000    -2.270000000     2.615000000
C     0.799000000    -1.209000000     1.287000000
H     0.164000000    -0.964000000     2.135000000
C     0.477000000    -0.878000000     0.001000000
C    -0.713000000     0.031000000    -0.274000000
H    -0.442000000     0.900000000    -0.878000000
H    -1.354000000    -0.610000000    -0.884000000
H    -1.217000000     0.417000000     0.615000000
C     1.400000000    -1.120000000    -1.029000000
H     1.042000000    -0.854000000    -2.021000000
C     2.552000000    -1.918000000    -0.800000000
H     3.286000000    -2.166000000    -1.563000000
C     2.831000000    -2.311000000     0.567000000
C     4.072000000    -3.108000000     0.898000000
O     4.679000000    -3.716000000     0.010000000
O     4.369000000    -3.189000000     2.078000000
