17
-95.35705
C     1.083000000    -1.800000000     2.422000000
H     0.999000000    -1.812000000     3.505000000
C     0.139000000    -0.952000000     1.780000000
H    -0.693000000    -0.489000000     2.305000000
C     0.176000000    -0.745000000     0.402000000
C    -0.867000000     0.087000000    -0.366000000
H    -0.358000000     0.639000000    -1.158000000
H    -1.591000000    -0.568000000    -0.855000000
H    -1.477000000     0.767000000     0.232000000
C     1.292000000    -1.326000000    -0.271000000
H     1.235000000    -1.182000000    -1.347000000
C     2.257000000    -2.088000000     0.416000000
H     3.072000000    -2.545000000    -0.140000000
C     2.210000000    -2.381000000     1.792000000
C     3.158000000    -3.262000000     2.497000000
O     3.951000000    -3.918000000     1.833000000
O     3.252000000    -3.252000000     3.717000000
