17
-86.93101
C     1.737000000    -1.063000000     2.858000000
H     2.094000000    -0.568000000     3.757000000
C     1.140000000    -0.213000000     1.926000000
H     1.111000000     0.862000000     2.087000000
C     0.519000000    -0.765000000     0.749000000
C    -0.144000000     0.096000000    -0.291000000
H     0.255000000     1.111000000    -0.240000000
H     0.205000000    -0.141000000    -1.298000000
H    -1.230000000     0.099000000    -0.183000000
C     0.530000000    -2.144000000     0.528000000
H     0.153000000    -2.578000000    -0.395000000
C     1.322000000    -2.894000000     1.339000000
H     1.549000000    -3.928000000     1.092000000
C     1.822000000    -2.389000000     2.488000000
C     2.491000000    -3.419000000     3.396000000
O     2.598000000    -4.645000000     3.189000000
O     3.007000000    -3.097000000     4.461000000
