17
-94.95358
C     1.142000000    -1.349000000     2.515000000
H     1.234000000    -1.144000000     3.579000000
C     0.231000000    -0.643000000     1.773000000
H    -0.400000000     0.020000000     2.358000000
C     0.141000000    -0.820000000     0.372000000
C    -0.894000000    -0.120000000    -0.401000000
H    -0.428000000     0.698000000    -0.955000000
H    -1.458000000    -0.687000000    -1.144000000
H    -1.722000000     0.184000000     0.242000000
C     1.001000000    -1.720000000    -0.248000000
H     0.848000000    -1.820000000    -1.320000000
C     1.933000000    -2.414000000     0.511000000
H     2.661000000    -3.045000000     0.007000000
C     1.960000000    -2.284000000     1.891000000
C     3.037000000    -3.075000000     2.639000000
O     3.874000000    -3.561000000     1.949000000
O     3.087000000    -3.149000000     3.836000000
