17
-92.46136
C     0.615000000    -1.883000000     2.291000000
H     0.223000000    -2.131000000     3.273000000
C    -0.087000000    -1.029000000     1.473000000
H    -0.885000000    -0.399000000     1.858000000
C     0.475000000    -0.676000000     0.223000000
C    -0.315000000     0.253000000    -0.666000000
H    -1.372000000    -0.014000000    -0.597000000
H    -0.240000000     1.269000000    -0.272000000
H    -0.003000000     0.307000000    -1.712000000
C     1.623000000    -1.384000000    -0.190000000
H     1.971000000    -1.110000000    -1.182000000
C     2.307000000    -2.225000000     0.631000000
H     3.202000000    -2.751000000     0.309000000
C     1.790000000    -2.492000000     1.912000000
C     2.613000000    -3.381000000     2.819000000
O     3.283000000    -4.307000000     2.440000000
O     2.484000000    -3.286000000     4.028000000
