17
-99.45722
C     1.111000000    -2.332000000     2.113000000
H     0.534000000    -2.566000000     3.004000000
C     0.935000000    -1.152000000     1.439000000
H     0.193000000    -0.434000000     1.780000000
C     1.595000000    -0.896000000     0.261000000
C     1.293000000     0.278000000    -0.567000000
H     0.457000000     0.883000000    -0.209000000
H     2.184000000     0.906000000    -0.619000000
H     0.999000000    -0.054000000    -1.565000000
C     2.480000000    -1.936000000    -0.174000000
H     3.028000000    -1.724000000    -1.088000000
C     2.788000000    -3.019000000     0.566000000
H     3.504000000    -3.781000000     0.270000000
C     2.111000000    -3.237000000     1.809000000
C     2.418000000    -4.447000000     2.746000000
O     3.078000000    -5.350000000     2.299000000
O     1.955000000    -4.450000000     3.900000000
