17
-88.38480
C     0.945000000    -1.863000000     2.720000000
H     0.684000000    -1.756000000     3.770000000
C     0.209000000    -1.084000000     1.807000000
H    -0.594000000    -0.396000000     2.059000000
C     0.480000000    -1.112000000     0.465000000
C    -0.274000000    -0.256000000    -0.500000000
H    -0.880000000     0.544000000    -0.071000000
H     0.423000000     0.323000000    -1.110000000
H    -0.769000000    -0.824000000    -1.290000000
C     1.466000000    -2.019000000     0.028000000
H     1.625000000    -2.102000000    -1.044000000
C     2.116000000    -2.886000000     0.897000000
H     2.840000000    -3.592000000     0.497000000
C     1.872000000    -2.776000000     2.285000000
C     2.681000000    -3.658000000     3.220000000
O     3.629000000    -4.269000000     2.763000000
O     2.692000000    -3.440000000     4.384000000
