17
-90.63989
C     0.988000000    -1.577000000     1.632000000
H     0.827000000    -2.221000000     2.493000000
C    -0.019000000    -0.928000000     1.009000000
H    -1.009000000    -1.010000000     1.450000000
C     0.077000000    -0.113000000    -0.090000000
C    -1.097000000     0.592000000    -0.667000000
H    -1.230000000     1.576000000    -0.211000000
H    -0.943000000     0.629000000    -1.747000000
H    -1.976000000    -0.054000000    -0.631000000
C     1.332000000     0.020000000    -0.637000000
H     1.588000000     0.555000000    -1.548000000
C     2.422000000    -0.691000000    -0.084000000
H     3.400000000    -0.626000000    -0.554000000
C     2.228000000    -1.545000000     1.037000000
C     3.446000000    -2.093000000     1.671000000
O     4.522000000    -2.239000000     1.113000000
O     3.353000000    -2.565000000     2.799000000
