17
-99.91104
C     0.385000000    -1.776000000     1.853000000
H     0.211000000    -2.079000000     2.882000000
C    -0.385000000    -0.821000000     1.257000000
H    -1.184000000    -0.362000000     1.834000000
C    -0.032000000    -0.343000000    -0.001000000
C    -0.669000000     0.941000000    -0.434000000
H    -1.719000000     0.957000000    -0.134000000
H    -0.135000000     1.843000000    -0.128000000
H    -0.596000000     0.979000000    -1.523000000
C     1.104000000    -0.808000000    -0.634000000
H     1.473000000    -0.359000000    -1.553000000
C     1.807000000    -1.919000000    -0.081000000
H     2.695000000    -2.359000000    -0.530000000
C     1.444000000    -2.376000000     1.201000000
C     2.215000000    -3.484000000     1.907000000
O     3.045000000    -4.086000000     1.244000000
O     1.941000000    -3.809000000     3.058000000
