17
-83.32415
C     0.301000000    -2.572000000     1.722000000
H    -0.108000000    -3.041000000     2.614000000
C    -0.526000000    -1.552000000     1.283000000
H    -1.462000000    -1.321000000     1.785000000
C    -0.056000000    -0.625000000     0.262000000
C    -0.973000000     0.435000000    -0.320000000
H    -1.986000000     0.100000000    -0.089000000
H    -0.781000000     1.425000000     0.100000000
H    -0.801000000     0.548000000    -1.393000000
C     1.179000000    -0.930000000    -0.317000000
H     1.652000000    -0.365000000    -1.116000000
C     1.907000000    -2.042000000     0.008000000
H     2.809000000    -2.285000000    -0.548000000
C     1.508000000    -2.939000000     1.024000000
C     2.404000000    -4.029000000     1.438000000
O     3.536000000    -4.184000000     0.987000000
O     2.191000000    -4.680000000     2.418000000
