17
-91.50269
C     0.467000000    -2.137000000     1.912000000
H     0.128000000    -2.850000000     2.660000000
C    -0.389000000    -1.135000000     1.432000000
H    -1.311000000    -0.931000000     1.970000000
C    -0.156000000    -0.408000000     0.225000000
C    -1.097000000     0.645000000    -0.456000000
H    -0.759000000     1.649000000    -0.191000000
H    -1.117000000     0.538000000    -1.542000000
H    -2.125000000     0.393000000    -0.187000000
C     1.069000000    -0.664000000    -0.395000000
H     1.459000000    -0.066000000    -1.214000000
C     1.974000000    -1.678000000     0.096000000
H     2.910000000    -1.755000000    -0.452000000
C     1.664000000    -2.379000000     1.219000000
C     2.747000000    -3.280000000     1.644000000
O     3.946000000    -3.136000000     1.319000000
O     2.391000000    -4.256000000     2.273000000
