17
-98.10659
C    -0.076000000    -1.859000000     2.207000000
H    -0.555000000    -2.198000000     3.122000000
C    -0.590000000    -0.812000000     1.434000000
H    -1.541000000    -0.353000000     1.694000000
C     0.098000000    -0.346000000     0.334000000
C    -0.467000000     0.861000000    -0.362000000
H    -1.465000000     1.158000000    -0.032000000
H     0.140000000     1.737000000    -0.128000000
H    -0.489000000     0.542000000    -1.406000000
C     1.231000000    -0.963000000    -0.050000000
H     1.868000000    -0.606000000    -0.855000000
C     1.797000000    -1.996000000     0.717000000
H     2.721000000    -2.454000000     0.373000000
C     1.108000000    -2.447000000     1.870000000
C     1.493000000    -3.714000000     2.570000000
O     2.540000000    -4.280000000     2.280000000
O     0.739000000    -4.137000000     3.445000000
