17
-89.78174
C     0.352000000    -1.703000000     2.082000000
H     0.134000000    -1.800000000     3.143000000
C    -0.337000000    -0.746000000     1.363000000
H    -1.047000000    -0.128000000     1.906000000
C    -0.119000000    -0.596000000     0.007000000
C    -0.883000000     0.507000000    -0.728000000
H    -0.474000000     1.512000000    -0.609000000
H    -1.046000000     0.307000000    -1.789000000
H    -1.908000000     0.486000000    -0.352000000
C     0.855000000    -1.413000000    -0.592000000
H     1.174000000    -1.146000000    -1.596000000
C     1.626000000    -2.240000000     0.180000000
H     2.469000000    -2.784000000    -0.239000000
C     1.387000000    -2.418000000     1.542000000
C     2.222000000    -3.467000000     2.386000000
O     3.148000000    -4.031000000     1.910000000
O     2.053000000    -3.550000000     3.568000000
