17
-89.83599
C     0.757000000    -2.091000000     2.063000000
H     0.833000000    -2.344000000     3.118000000
C     0.006000000    -1.003000000     1.647000000
H    -0.539000000    -0.482000000     2.430000000
C    -0.015000000    -0.566000000     0.322000000
C    -0.718000000     0.672000000    -0.068000000
H    -0.056000000     1.348000000    -0.615000000
H    -1.428000000     0.411000000    -0.855000000
H    -1.231000000     1.218000000     0.726000000
C     0.899000000    -1.145000000    -0.598000000
H     0.941000000    -0.727000000    -1.601000000
C     1.656000000    -2.260000000    -0.194000000
H     2.341000000    -2.728000000    -0.896000000
C     1.593000000    -2.695000000     1.128000000
C     2.266000000    -3.992000000     1.443000000
O     3.096000000    -4.550000000     0.738000000
O     1.819000000    -4.670000000     2.320000000
