17
-84.12974
C     0.711000000    -2.176000000     1.826000000
H     0.465000000    -2.561000000     2.812000000
C    -0.034000000    -1.060000000     1.507000000
H    -0.745000000    -0.760000000     2.272000000
C     0.166000000    -0.515000000     0.226000000
C    -0.756000000     0.600000000    -0.191000000
H    -1.738000000     0.559000000     0.285000000
H    -0.167000000     1.470000000     0.105000000
H    -1.087000000     0.607000000    -1.232000000
C     1.213000000    -0.914000000    -0.581000000
H     1.330000000    -0.420000000    -1.542000000
C     1.981000000    -1.970000000    -0.239000000
H     2.768000000    -2.296000000    -0.913000000
C     1.806000000    -2.608000000     1.012000000
C     2.696000000    -3.724000000     1.403000000
O     3.452000000    -4.284000000     0.620000000
O     2.488000000    -4.365000000     2.410000000
