17
-97.95809
C     0.606000000    -1.663000000     2.323000000
H     0.659000000    -1.834000000     3.395000000
C    -0.067000000    -0.536000000     1.800000000
H    -0.474000000     0.179000000     2.511000000
C    -0.078000000    -0.378000000     0.366000000
C    -0.692000000     0.859000000    -0.175000000
H    -1.006000000     0.621000000    -1.193000000
H    -1.535000000     1.083000000     0.484000000
H    -0.093000000     1.771000000    -0.144000000
C     0.388000000    -1.444000000    -0.421000000
H     0.434000000    -1.310000000    -1.499000000
C     1.053000000    -2.503000000     0.094000000
H     1.440000000    -3.324000000    -0.504000000
C     1.198000000    -2.599000000     1.476000000
C     1.814000000    -3.814000000     2.085000000
O     2.236000000    -4.694000000     1.359000000
O     1.820000000    -3.945000000     3.316000000
