17
-81.64263
C    -0.374000000    -2.238000000     1.288000000
H    -0.980000000    -2.645000000     2.094000000
C    -0.532000000    -0.887000000     1.055000000
H    -1.225000000    -0.310000000     1.663000000
C     0.130000000    -0.214000000     0.002000000
C    -0.453000000     1.078000000    -0.538000000
H    -1.394000000     1.452000000    -0.130000000
H     0.286000000     1.852000000    -0.320000000
H    -0.590000000     0.904000000    -1.607000000
C     0.908000000    -0.925000000    -0.887000000
H     1.276000000    -0.479000000    -1.808000000
C     1.239000000    -2.239000000    -0.636000000
H     1.842000000    -2.728000000    -1.397000000
C     0.511000000    -2.947000000     0.343000000
C     0.818000000    -4.423000000     0.531000000
O     1.472000000    -4.995000000    -0.252000000
O     0.282000000    -5.043000000     1.441000000
