17
-92.77675
C     0.369000000    -1.840000000     1.890000000
H     0.136000000    -2.149000000     2.905000000
C    -0.266000000    -0.764000000     1.299000000
H    -1.189000000    -0.362000000     1.710000000
C     0.156000000    -0.310000000     0.046000000
C    -0.453000000     0.900000000    -0.560000000
H    -0.330000000     0.848000000    -1.644000000
H    -1.521000000     0.910000000    -0.336000000
H    -0.019000000     1.831000000    -0.189000000
C     1.299000000    -0.937000000    -0.555000000
H     1.693000000    -0.658000000    -1.529000000
C     1.958000000    -1.997000000     0.120000000
H     2.857000000    -2.514000000    -0.207000000
C     1.410000000    -2.482000000     1.269000000
C     2.028000000    -3.661000000     1.953000000
O     3.079000000    -4.087000000     1.568000000
O     1.558000000    -4.102000000     2.966000000
