17
-101.66931
C     0.379000000    -2.577000000     1.585000000
H     0.179000000    -3.003000000     2.564000000
C    -0.295000000    -1.407000000     1.238000000
H    -0.989000000    -0.970000000     1.952000000
C    -0.004000000    -0.759000000     0.066000000
C    -0.567000000     0.626000000    -0.148000000
H    -1.072000000     0.970000000     0.757000000
H     0.318000000     1.230000000    -0.358000000
H    -1.241000000     0.694000000    -1.005000000
C     0.971000000    -1.257000000    -0.778000000
H     1.324000000    -0.637000000    -1.597000000
C     1.646000000    -2.460000000    -0.479000000
H     2.447000000    -2.913000000    -1.058000000
C     1.355000000    -3.143000000     0.743000000
C     2.078000000    -4.437000000     1.071000000
O     2.757000000    -4.948000000     0.188000000
O     1.931000000    -4.889000000     2.186000000
