17
-101.06035
C    -0.162000000    -1.985000000     1.317000000
H    -0.609000000    -2.400000000     2.217000000
C    -0.437000000    -0.620000000     0.965000000
H    -0.941000000     0.030000000     1.676000000
C    -0.030000000    -0.086000000    -0.225000000
C    -0.568000000     1.245000000    -0.729000000
H    -1.121000000     1.734000000     0.075000000
H     0.141000000     1.879000000    -1.265000000
H    -1.368000000     1.104000000    -1.459000000
C     0.729000000    -0.871000000    -1.110000000
H     1.058000000    -0.479000000    -2.069000000
C     1.188000000    -2.144000000    -0.716000000
H     1.859000000    -2.793000000    -1.272000000
C     0.656000000    -2.737000000     0.459000000
C     0.992000000    -4.132000000     0.881000000
O     1.645000000    -4.779000000     0.033000000
O     0.725000000    -4.562000000     2.023000000
