17
-81.66349
C    -0.191000000    -2.558000000     1.641000000
H    -0.643000000    -3.163000000     2.422000000
C    -0.548000000    -1.223000000     1.315000000
H    -1.285000000    -0.665000000     1.886000000
C    -0.126000000    -0.648000000     0.116000000
C    -0.579000000     0.774000000    -0.248000000
H    -1.615000000     0.856000000     0.088000000
H     0.015000000     1.533000000     0.266000000
H    -0.617000000     0.949000000    -1.325000000
C     0.854000000    -1.209000000    -0.602000000
H     1.213000000    -0.727000000    -1.508000000
C     1.262000000    -2.531000000    -0.380000000
H     1.930000000    -3.141000000    -0.983000000
C     0.708000000    -3.211000000     0.726000000
C     1.202000000    -4.545000000     1.061000000
O     1.714000000    -5.257000000     0.243000000
O     1.301000000    -4.859000000     2.193000000
