17
-91.49732
C     0.793000000    -1.650000000     2.752000000
H     1.020000000    -1.509000000     3.806000000
C     0.351000000    -0.555000000     2.017000000
H     0.524000000     0.446000000     2.406000000
C    -0.215000000    -0.809000000     0.759000000
C    -0.767000000     0.297000000    -0.176000000
H    -1.596000000    -0.174000000    -0.709000000
H    -1.159000000     1.155000000     0.376000000
H    -0.038000000     0.584000000    -0.937000000
C    -0.250000000    -2.079000000     0.290000000
H    -0.630000000    -2.285000000    -0.707000000
C     0.210000000    -3.177000000     1.006000000
H     0.003000000    -4.140000000     0.546000000
C     0.711000000    -2.935000000     2.270000000
C     1.048000000    -4.186000000     3.069000000
O     1.101000000    -5.233000000     2.482000000
O     1.478000000    -4.155000000     4.216000000
