17
-101.68589
C     1.470000000    -1.339000000     2.138000000
H     2.282000000    -1.230000000     2.853000000
C     1.148000000    -0.377000000     1.200000000
H     1.724000000     0.545000000     1.205000000
C     0.114000000    -0.584000000     0.252000000
C    -0.321000000     0.535000000    -0.651000000
H    -1.403000000     0.659000000    -0.572000000
H     0.077000000     1.535000000    -0.465000000
H    -0.151000000     0.326000000    -1.709000000
C    -0.574000000    -1.788000000     0.293000000
H    -1.405000000    -2.038000000    -0.361000000
C    -0.186000000    -2.787000000     1.189000000
H    -0.718000000    -3.733000000     1.141000000
C     0.797000000    -2.562000000     2.149000000
C     1.153000000    -3.710000000     3.066000000
O     0.571000000    -4.793000000     2.995000000
O     2.047000000    -3.567000000     3.870000000
