17
-84.46354
C     1.957000000    -1.975000000    -0.421000000
H     2.556000000    -2.398000000    -1.223000000
C     1.005000000    -0.979000000    -0.766000000
H     0.845000000    -0.733000000    -1.813000000
C     0.178000000    -0.420000000     0.289000000
C    -0.871000000     0.622000000     0.042000000
H    -1.182000000     1.088000000     0.979000000
H    -0.413000000     1.492000000    -0.434000000
H    -1.758000000     0.224000000    -0.454000000
C     0.218000000    -0.949000000     1.543000000
H    -0.486000000    -0.639000000     2.311000000
C     1.360000000    -1.714000000     1.838000000
H     1.546000000    -1.973000000     2.877000000
C     2.076000000    -2.339000000     0.902000000
C     3.171000000    -3.322000000     1.173000000
O     3.238000000    -3.825000000     2.266000000
O     3.949000000    -3.669000000     0.338000000
