17
-93.38020
C     2.145000000    -0.307000000     1.233000000
H     3.211000000    -0.108000000     1.309000000
C     1.207000000     0.213000000     0.235000000
H     1.490000000     0.867000000    -0.586000000
C    -0.138000000    -0.100000000     0.283000000
C    -1.035000000     0.506000000    -0.700000000
H    -2.071000000     0.219000000    -0.510000000
H    -0.862000000     1.583000000    -0.755000000
H    -0.847000000     0.158000000    -1.717000000
C    -0.627000000    -0.941000000     1.273000000
H    -1.683000000    -1.197000000     1.297000000
C     0.269000000    -1.507000000     2.251000000
H    -0.173000000    -1.927000000     3.151000000
C     1.648000000    -1.180000000     2.252000000
C     2.618000000    -1.706000000     3.380000000
O     2.096000000    -2.481000000     4.149000000
O     3.782000000    -1.430000000     3.358000000
