17
-93.03223
C     2.690000000    -1.309000000     1.341000000
H     3.427000000    -2.028000000     0.994000000
C     1.789000000    -0.954000000     0.323000000
H     1.920000000    -1.184000000    -0.731000000
C     0.719000000    -0.113000000     0.630000000
C    -0.272000000     0.421000000    -0.405000000
H     0.271000000     0.728000000    -1.302000000
H    -1.117000000    -0.245000000    -0.589000000
H    -0.650000000     1.386000000    -0.059000000
C     0.508000000     0.329000000     1.937000000
H    -0.338000000     0.957000000     2.205000000
C     1.439000000    -0.118000000     2.933000000
H     1.229000000     0.284000000     3.921000000
C     2.528000000    -0.931000000     2.663000000
C     3.482000000    -1.371000000     3.750000000
O     3.101000000    -1.314000000     4.877000000
O     4.533000000    -1.925000000     3.506000000
