17
-92.74834
C     1.710000000    -1.720000000     0.304000000
H     2.215000000    -2.606000000    -0.073000000
C     0.833000000    -0.991000000    -0.493000000
H     0.737000000    -1.378000000    -1.504000000
C     0.225000000     0.152000000    -0.002000000
C    -0.702000000     0.958000000    -0.970000000
H    -0.632000000     0.741000000    -2.038000000
H    -1.691000000     0.643000000    -0.629000000
H    -0.480000000     2.023000000    -0.880000000
C     0.383000000     0.451000000     1.270000000
H    -0.194000000     1.283000000     1.664000000
C     1.305000000    -0.253000000     2.075000000
H     1.453000000     0.155000000     3.072000000
C     1.970000000    -1.382000000     1.584000000
C     2.927000000    -2.062000000     2.526000000
O     3.086000000    -1.645000000     3.707000000
O     3.452000000    -3.125000000     2.176000000
