17
-95.91849
C     1.700000000    -1.833000000     0.251000000
H     2.586000000    -2.385000000    -0.050000000
C     1.219000000    -0.784000000    -0.596000000
H     1.680000000    -0.591000000    -1.561000000
C     0.158000000     0.051000000    -0.232000000
C    -0.524000000     1.053000000    -1.188000000
H    -1.180000000     1.766000000    -0.684000000
H     0.248000000     1.613000000    -1.721000000
H    -1.186000000     0.629000000    -1.946000000
C    -0.485000000    -0.290000000     0.969000000
H    -1.340000000     0.236000000     1.386000000
C    -0.005000000    -1.303000000     1.788000000
H    -0.577000000    -1.560000000     2.675000000
C     1.102000000    -2.080000000     1.487000000
C     1.618000000    -3.192000000     2.418000000
O     1.070000000    -3.463000000     3.464000000
O     2.761000000    -3.572000000     2.205000000
