17
-91.48424
C     1.719000000    -2.249000000    -0.083000000
H     2.537000000    -2.790000000    -0.553000000
C     1.048000000    -1.262000000    -0.681000000
H     1.223000000    -0.977000000    -1.715000000
C     0.110000000    -0.516000000     0.001000000
C    -0.509000000     0.596000000    -0.773000000
H    -0.844000000     1.384000000    -0.095000000
H     0.161000000     1.071000000    -1.493000000
H    -1.478000000     0.528000000    -1.273000000
C    -0.172000000    -0.745000000     1.314000000
H    -0.860000000    -0.142000000     1.902000000
C     0.492000000    -1.815000000     1.960000000
H     0.280000000    -2.070000000     2.996000000
C     1.420000000    -2.556000000     1.292000000
C     2.140000000    -3.736000000     1.923000000
O     2.005000000    -3.934000000     3.109000000
O     3.060000000    -4.314000000     1.348000000
