17
-97.08399
C     1.576000000    -1.596000000     1.007000000
H     2.247000000    -2.414000000     0.757000000
C     0.942000000    -0.961000000     0.027000000
H     1.125000000    -1.245000000    -1.006000000
C     0.116000000     0.169000000     0.329000000
C    -0.630000000     0.837000000    -0.800000000
H    -0.659000000     1.881000000    -0.482000000
H    -0.024000000     0.879000000    -1.707000000
H    -1.582000000     0.377000000    -1.074000000
C    -0.154000000     0.535000000     1.678000000
H    -0.789000000     1.381000000     1.927000000
C     0.514000000    -0.195000000     2.629000000
H     0.403000000     0.041000000     3.684000000
C     1.362000000    -1.256000000     2.347000000
C     2.065000000    -1.937000000     3.457000000
O     1.820000000    -1.538000000     4.596000000
O     2.749000000    -2.975000000     3.273000000
