17
-84.36166
C     0.795000000    -2.446000000    -0.042000000
H     1.033000000    -3.328000000    -0.631000000
C     0.465000000    -1.215000000    -0.663000000
H     0.543000000    -1.112000000    -1.742000000
C     0.169000000    -0.166000000     0.105000000
C    -0.741000000     0.982000000    -0.485000000
H    -0.303000000     1.949000000    -0.230000000
H    -0.761000000     0.927000000    -1.575000000
H    -1.777000000     0.916000000    -0.147000000
C     0.070000000    -0.331000000     1.472000000
H    -0.452000000     0.445000000     2.026000000
C     0.484000000    -1.553000000     2.128000000
H     0.564000000    -1.681000000     3.204000000
C     0.899000000    -2.610000000     1.315000000
C     1.273000000    -3.963000000     1.865000000
O     1.284000000    -4.135000000     3.051000000
O     1.619000000    -4.870000000     1.137000000
