17
-92.00235
C     1.309000000    -2.102000000     0.002000000
H     2.035000000    -2.741000000    -0.494000000
C     0.814000000    -0.945000000    -0.535000000
H     1.023000000    -0.767000000    -1.586000000
C    -0.133000000    -0.170000000     0.222000000
C    -0.762000000     0.882000000    -0.630000000
H    -0.956000000     0.576000000    -1.660000000
H    -1.642000000     1.324000000    -0.158000000
H    -0.049000000     1.692000000    -0.800000000
C    -0.494000000    -0.554000000     1.510000000
H    -1.317000000    -0.031000000     1.990000000
C     0.041000000    -1.709000000     2.038000000
H    -0.313000000    -1.985000000     3.028000000
C     0.989000000    -2.493000000     1.295000000
C     1.626000000    -3.691000000     1.849000000
O     1.311000000    -3.994000000     3.003000000
O     2.422000000    -4.416000000     1.285000000
