17
-93.32137
C     2.450000000    -0.443000000     1.481000000
H     3.411000000    -0.945000000     1.401000000
C     1.574000000    -0.470000000     0.423000000
H     1.907000000    -0.813000000    -0.553000000
C     0.348000000     0.094000000     0.576000000
C    -0.623000000     0.159000000    -0.566000000
H    -0.210000000     0.070000000    -1.573000000
H    -1.350000000    -0.655000000    -0.607000000
H    -1.193000000     1.089000000    -0.524000000
C    -0.131000000     0.513000000     1.855000000
H    -1.126000000     0.949000000     1.889000000
C     0.769000000     0.477000000     2.886000000
H     0.539000000     0.716000000     3.921000000
C     2.066000000    -0.082000000     2.777000000
C     2.941000000    -0.268000000     3.978000000
O     2.688000000     0.250000000     5.056000000
O     3.852000000    -1.006000000     3.827000000
