17
-89.09276
C     0.882000000    -2.965000000     0.602000000
H     1.215000000    -3.731000000    -0.094000000
C     0.320000000    -1.843000000    -0.014000000
H     0.036000000    -1.857000000    -1.063000000
C     0.037000000    -0.652000000     0.695000000
C    -0.622000000     0.506000000    -0.014000000
H     0.150000000     1.149000000    -0.440000000
H    -1.156000000     0.111000000    -0.881000000
H    -1.204000000     1.145000000     0.653000000
C    -0.002000000    -0.767000000     2.137000000
H    -0.409000000     0.023000000     2.764000000
C     0.630000000    -1.911000000     2.713000000
H     0.733000000    -1.952000000     3.794000000
C     1.077000000    -3.014000000     1.945000000
C     1.578000000    -4.220000000     2.672000000
O     1.722000000    -4.246000000     3.870000000
O     1.992000000    -5.108000000     1.995000000
