17
-86.45604
C     0.913000000    -2.230000000     0.998000000
H     1.226000000    -3.167000000     0.544000000
C     0.339000000    -1.250000000     0.162000000
H     0.292000000    -1.386000000    -0.915000000
C    -0.252000000    -0.127000000     0.683000000
C    -0.849000000     0.917000000    -0.142000000
H    -1.800000000     1.301000000     0.233000000
H    -0.292000000     1.847000000    -0.270000000
H    -1.078000000     0.473000000    -1.113000000
C    -0.190000000     0.080000000     2.059000000
H    -0.607000000     0.961000000     2.540000000
C     0.642000000    -0.732000000     2.890000000
H     0.772000000    -0.476000000     3.939000000
C     1.031000000    -2.009000000     2.361000000
C     1.685000000    -3.064000000     3.237000000
O     1.695000000    -3.025000000     4.443000000
O     2.493000000    -3.840000000     2.766000000
