17
-95.49083
C     0.917000000    -2.729000000     0.780000000
H     1.392000000    -3.594000000     0.324000000
C     0.382000000    -1.729000000    -0.043000000
H     0.397000000    -1.859000000    -1.122000000
C    -0.154000000    -0.585000000     0.485000000
C    -0.862000000     0.429000000    -0.381000000
H    -1.904000000     0.631000000    -0.125000000
H    -0.311000000     1.370000000    -0.319000000
H    -0.913000000     0.154000000    -1.436000000
C    -0.207000000    -0.422000000     1.860000000
H    -0.889000000     0.276000000     2.340000000
C     0.230000000    -1.458000000     2.685000000
H     0.199000000    -1.401000000     3.770000000
C     0.940000000    -2.525000000     2.169000000
C     1.605000000    -3.517000000     3.001000000
O     1.998000000    -3.203000000     4.143000000
O     1.835000000    -4.679000000     2.629000000
