17
-82.54710
C     0.838000000    -3.065000000     0.398000000
H     1.476000000    -3.795000000    -0.094000000
C     0.466000000    -1.851000000    -0.164000000
H     0.659000000    -1.680000000    -1.220000000
C    -0.142000000    -0.877000000     0.560000000
C    -0.387000000     0.489000000    -0.015000000
H     0.523000000     1.047000000    -0.245000000
H    -0.994000000     0.342000000    -0.911000000
H    -1.040000000     0.993000000     0.701000000
C    -0.312000000    -1.158000000     1.929000000
H    -0.668000000    -0.350000000     2.563000000
C    -0.010000000    -2.404000000     2.489000000
H    -0.189000000    -2.539000000     3.552000000
C     0.643000000    -3.383000000     1.686000000
C     0.925000000    -4.641000000     2.306000000
O     0.797000000    -4.797000000     3.483000000
O     1.381000000    -5.584000000     1.702000000
