17
-95.57368
C     0.993000000    -3.221000000     0.734000000
H     0.879000000    -4.279000000     0.517000000
C     0.444000000    -2.243000000    -0.081000000
H    -0.200000000    -2.616000000    -0.873000000
C     0.721000000    -0.899000000     0.201000000
C    -0.070000000     0.151000000    -0.551000000
H    -1.080000000     0.148000000    -0.136000000
H     0.350000000     1.154000000    -0.657000000
H    -0.059000000    -0.190000000    -1.589000000
C     1.414000000    -0.608000000     1.329000000
H     1.544000000     0.394000000     1.729000000
C     2.088000000    -1.609000000     2.101000000
H     2.723000000    -1.330000000     2.938000000
C     1.932000000    -2.967000000     1.781000000
C     2.693000000    -4.073000000     2.513000000
O     3.423000000    -3.793000000     3.459000000
O     2.411000000    -5.239000000     2.281000000
