17
-95.16210
C     2.422000000    -0.963000000    -0.459000000
H     3.462000000    -0.884000000    -0.767000000
C     1.533000000     0.078000000    -0.763000000
H     1.948000000     0.918000000    -1.314000000
C     0.202000000     0.035000000    -0.320000000
C    -0.772000000     1.261000000    -0.370000000
H    -1.535000000     1.104000000    -1.135000000
H    -1.343000000     1.393000000     0.552000000
H    -0.224000000     2.204000000    -0.427000000
C    -0.170000000    -1.046000000     0.468000000
H    -1.179000000    -1.101000000     0.868000000
C     0.672000000    -2.149000000     0.676000000
H     0.292000000    -3.054000000     1.142000000
C     1.987000000    -2.060000000     0.236000000
C     2.846000000    -3.272000000     0.470000000
O     2.574000000    -3.993000000     1.413000000
O     3.921000000    -3.303000000    -0.081000000
