17
-95.88348
C     1.877000000    -1.626000000    -0.558000000
H     2.820000000    -1.670000000    -1.096000000
C     1.201000000    -0.432000000    -0.682000000
H     1.724000000     0.432000000    -1.084000000
C    -0.100000000    -0.308000000    -0.168000000
C    -0.990000000     0.910000000    -0.392000000
H    -0.721000000     1.471000000    -1.289000000
H    -2.041000000     0.620000000    -0.339000000
H    -0.785000000     1.590000000     0.438000000
C    -0.588000000    -1.325000000     0.663000000
H    -1.537000000    -1.201000000     1.178000000
C     0.049000000    -2.546000000     0.759000000
H    -0.352000000    -3.352000000     1.368000000
C     1.245000000    -2.756000000     0.075000000
C     2.011000000    -4.041000000    -0.002000000
O     1.481000000    -5.114000000     0.332000000
O     3.251000000    -4.109000000    -0.246000000
