17
-98.36796
C     2.101000000    -1.558000000     0.052000000
H     3.157000000    -1.619000000    -0.196000000
C     1.384000000    -0.389000000    -0.267000000
H     1.937000000     0.397000000    -0.775000000
C     0.060000000    -0.227000000     0.109000000
C    -0.724000000     1.022000000    -0.333000000
H    -0.255000000     1.974000000    -0.076000000
H    -0.861000000     1.084000000    -1.414000000
H    -1.740000000     1.072000000     0.063000000
C    -0.551000000    -1.243000000     0.817000000
H    -1.597000000    -1.109000000     1.079000000
C     0.176000000    -2.435000000     1.147000000
H    -0.375000000    -3.160000000     1.740000000
C     1.504000000    -2.583000000     0.803000000
C     2.240000000    -3.861000000     1.177000000
O     1.760000000    -4.748000000     1.863000000
O     3.397000000    -3.940000000     0.847000000
