17
-88.96037
C     2.340000000    -1.208000000     0.295000000
H     3.397000000    -0.960000000     0.341000000
C     1.448000000    -0.263000000     0.001000000
H     1.794000000     0.702000000    -0.360000000
C     0.051000000    -0.463000000     0.272000000
C    -0.975000000     0.577000000     0.142000000
H    -0.655000000     1.491000000     0.646000000
H    -1.349000000     0.666000000    -0.881000000
H    -1.788000000     0.217000000     0.776000000
C    -0.351000000    -1.771000000     0.622000000
H    -1.410000000    -2.008000000     0.683000000
C     0.597000000    -2.798000000     0.674000000
H     0.292000000    -3.839000000     0.736000000
C     1.993000000    -2.500000000     0.622000000
C     3.006000000    -3.587000000     0.863000000
O     2.585000000    -4.690000000     1.136000000
O     4.152000000    -3.318000000     1.035000000
