17
-99.91555
C     2.314000000    -1.232000000     0.739000000
H     3.302000000    -1.501000000     0.376000000
C     1.546000000    -0.295000000     0.060000000
H     1.945000000     0.191000000    -0.826000000
C     0.298000000     0.045000000     0.530000000
C    -0.487000000     1.087000000    -0.195000000
H    -0.617000000     1.923000000     0.497000000
H    -0.042000000     1.492000000    -1.106000000
H    -1.396000000     0.624000000    -0.582000000
C    -0.226000000    -0.630000000     1.679000000
H    -1.262000000    -0.520000000     1.991000000
C     0.546000000    -1.642000000     2.316000000
H     0.146000000    -2.088000000     3.223000000
C     1.819000000    -1.924000000     1.861000000
C     2.654000000    -2.958000000     2.499000000
O     2.131000000    -3.759000000     3.272000000
O     3.865000000    -3.149000000     2.159000000
