17
-91.45556
C     1.565000000    -1.634000000    -0.423000000
H     2.451000000    -1.741000000    -1.044000000
C     0.917000000    -0.438000000    -0.566000000
H     1.363000000     0.254000000    -1.276000000
C    -0.220000000    -0.064000000     0.188000000
C    -0.945000000     1.233000000    -0.037000000
H    -0.769000000     1.843000000     0.851000000
H    -0.584000000     1.700000000    -0.956000000
H    -2.019000000     1.106000000    -0.190000000
C    -0.742000000    -0.924000000     1.118000000
H    -1.584000000    -0.639000000     1.743000000
C    -0.110000000    -2.189000000     1.251000000
H    -0.522000000    -2.862000000     1.999000000
C     1.031000000    -2.509000000     0.496000000
C     1.618000000    -3.885000000     0.601000000
O     1.141000000    -4.712000000     1.311000000
O     2.531000000    -4.282000000    -0.134000000
