17
-96.17212
C     1.518000000    -1.811000000    -0.080000000
H     2.374000000    -2.343000000    -0.487000000
C     1.069000000    -0.615000000    -0.613000000
H     1.530000000    -0.172000000    -1.492000000
C     0.111000000     0.091000000     0.123000000
C    -0.584000000     1.336000000    -0.489000000
H    -1.226000000     1.872000000     0.213000000
H     0.059000000     2.079000000    -0.967000000
H    -1.189000000     1.026000000    -1.344000000
C    -0.456000000    -0.409000000     1.344000000
H    -1.310000000     0.135000000     1.739000000
C     0.028000000    -1.685000000     1.829000000
H    -0.342000000    -2.123000000     2.753000000
C     0.984000000    -2.397000000     1.120000000
C     1.481000000    -3.711000000     1.580000000
O     0.871000000    -4.366000000     2.480000000
O     2.532000000    -4.143000000     1.146000000
