17
-90.14559
C     1.816000000    -2.104000000     0.228000000
H     2.434000000    -2.853000000    -0.262000000
C     1.219000000    -0.966000000    -0.525000000
H     1.389000000    -0.888000000    -1.596000000
C     0.350000000    -0.121000000     0.167000000
C    -0.277000000     1.048000000    -0.525000000
H    -1.007000000     1.440000000     0.186000000
H     0.545000000     1.739000000    -0.727000000
H    -0.640000000     0.625000000    -1.464000000
C     0.144000000    -0.356000000     1.525000000
H    -0.392000000     0.381000000     2.117000000
C     0.794000000    -1.363000000     2.217000000
H     0.692000000    -1.420000000     3.297000000
C     1.714000000    -2.164000000     1.560000000
C     2.429000000    -3.274000000     2.388000000
O     2.485000000    -3.246000000     3.602000000
O     3.076000000    -4.179000000     1.824000000
