17
-90.92724
C     1.688000000    -2.140000000     0.516000000
H     2.588000000    -2.630000000     0.152000000
C     1.211000000    -0.961000000     0.037000000
H     1.738000000    -0.469000000    -0.777000000
C     0.040000000    -0.410000000     0.606000000
C    -0.558000000     0.849000000     0.030000000
H    -0.752000000     0.724000000    -1.038000000
H    -1.535000000     1.013000000     0.489000000
H    -0.082000000     1.796000000     0.293000000
C    -0.618000000    -1.069000000     1.611000000
H    -1.491000000    -0.592000000     2.049000000
C    -0.190000000    -2.289000000     1.979000000
H    -0.756000000    -2.642000000     2.838000000
C     0.995000000    -2.860000000     1.519000000
C     1.633000000    -4.080000000     2.147000000
O     1.171000000    -4.640000000     3.126000000
O     2.674000000    -4.454000000     1.693000000
