17
-95.81574
C     0.429000000    -2.679000000    -1.641000000
H     0.232000000    -3.327000000    -2.491000000
C    -0.418000000    -1.595000000    -1.468000000
H    -1.192000000    -1.370000000    -2.198000000
C    -0.311000000    -0.747000000    -0.356000000
C    -1.108000000     0.497000000    -0.179000000
H    -1.797000000     0.778000000    -0.978000000
H    -1.837000000     0.400000000     0.628000000
H    -0.464000000     1.324000000     0.124000000
C     0.716000000    -1.053000000     0.571000000
H     0.823000000    -0.361000000     1.403000000
C     1.577000000    -2.143000000     0.365000000
H     2.361000000    -2.382000000     1.079000000
C     1.468000000    -2.950000000    -0.756000000
C     2.351000000    -4.126000000    -0.980000000
O     3.408000000    -4.068000000    -0.389000000
O     2.173000000    -4.728000000    -2.049000000
