17
-95.26913
C     2.404000000    -1.262000000     0.207000000
H     3.217000000    -1.774000000    -0.302000000
C     1.463000000    -0.634000000    -0.634000000
H     1.520000000    -0.717000000    -1.716000000
C     0.387000000     0.000000000    -0.031000000
C    -0.756000000     0.413000000    -0.858000000
H    -1.284000000     1.241000000    -0.379000000
H    -0.395000000     0.730000000    -1.839000000
H    -1.482000000    -0.384000000    -1.028000000
C     0.252000000    -0.030000000     1.369000000
H    -0.640000000     0.393000000     1.824000000
C     1.163000000    -0.608000000     2.256000000
H     1.004000000    -0.664000000     3.330000000
C     2.297000000    -1.163000000     1.591000000
C     3.385000000    -1.719000000     2.491000000
O     3.346000000    -1.558000000     3.665000000
O     4.238000000    -2.423000000     1.972000000
