17
-93.39735
C     2.544000000    -1.121000000     0.336000000
H     3.408000000    -1.489000000    -0.211000000
C     1.476000000    -0.526000000    -0.431000000
H     1.613000000    -0.296000000    -1.485000000
C     0.362000000    -0.098000000     0.213000000
C    -0.682000000     0.598000000    -0.632000000
H    -1.177000000    -0.116000000    -1.294000000
H    -1.335000000     1.203000000     0.001000000
H    -0.220000000     1.397000000    -1.215000000
C     0.180000000    -0.390000000     1.564000000
H    -0.726000000     0.051000000     1.973000000
C     1.154000000    -1.009000000     2.342000000
H     0.857000000    -1.321000000     3.340000000
C     2.389000000    -1.360000000     1.780000000
C     3.381000000    -2.182000000     2.537000000
O     3.225000000    -2.402000000     3.742000000
O     4.392000000    -2.463000000     1.932000000
