17
-94.31058
C     2.746000000    -1.183000000     1.008000000
H     3.697000000    -1.659000000     0.783000000
C     1.927000000    -0.466000000     0.133000000
H     2.272000000    -0.358000000    -0.892000000
C     0.623000000    -0.050000000     0.560000000
C    -0.267000000     0.712000000    -0.321000000
H     0.249000000     1.276000000    -1.101000000
H    -0.781000000    -0.116000000    -0.813000000
H    -1.038000000     1.324000000     0.152000000
C     0.147000000    -0.530000000     1.763000000
H    -0.902000000    -0.404000000     2.020000000
C     0.961000000    -1.143000000     2.666000000
H     0.597000000    -1.378000000     3.663000000
C     2.253000000    -1.452000000     2.325000000
C     2.997000000    -2.393000000     3.266000000
O     2.707000000    -2.433000000     4.498000000
O     4.014000000    -2.943000000     2.874000000
