17
-91.87439
C     2.187000000    -0.827000000     0.462000000
H     3.235000000    -0.895000000     0.181000000
C     1.245000000    -0.314000000    -0.454000000
H     1.578000000     0.008000000    -1.438000000
C    -0.026000000    -0.012000000     0.010000000
C    -0.905000000     0.724000000    -0.861000000
H    -1.913000000     0.693000000    -0.441000000
H    -0.531000000     1.750000000    -0.844000000
H    -1.015000000     0.351000000    -1.881000000
C    -0.400000000    -0.302000000     1.321000000
H    -1.348000000     0.055000000     1.714000000
C     0.549000000    -0.884000000     2.179000000
H     0.216000000    -1.071000000     3.197000000
C     1.878000000    -1.106000000     1.778000000
C     2.881000000    -1.460000000     2.757000000
O     2.528000000    -1.558000000     3.927000000
O     4.067000000    -1.355000000     2.511000000
