17
-95.71915
C     2.250000000    -1.005000000     1.315000000
H     3.199000000    -1.494000000     1.112000000
C     1.445000000    -0.508000000     0.244000000
H     1.762000000    -0.708000000    -0.776000000
C     0.226000000     0.058000000     0.539000000
C    -0.636000000     0.450000000    -0.644000000
H    -1.101000000    -0.459000000    -1.032000000
H    -1.363000000     1.205000000    -0.339000000
H    -0.035000000     0.922000000    -1.424000000
C    -0.194000000     0.134000000     1.867000000
H    -1.199000000     0.504000000     2.050000000
C     0.568000000    -0.330000000     2.880000000
H     0.134000000    -0.119000000     3.854000000
C     1.833000000    -0.844000000     2.633000000
C     2.690000000    -1.208000000     3.814000000
O     2.284000000    -0.969000000     4.912000000
O     3.763000000    -1.730000000     3.633000000
