17
-92.83840
C     2.697000000    -0.595000000     0.725000000
H     3.741000000    -0.747000000     0.464000000
C     1.843000000    -0.187000000    -0.321000000
H     2.318000000    -0.139000000    -1.298000000
C     0.527000000     0.192000000    -0.045000000
C    -0.475000000     0.631000000    -1.122000000
H    -1.367000000     0.065000000    -0.847000000
H    -0.684000000     1.703000000    -1.154000000
H    -0.106000000     0.349000000    -2.110000000
C     0.096000000     0.123000000     1.250000000
H    -0.955000000     0.298000000     1.469000000
C     0.902000000    -0.245000000     2.278000000
H     0.566000000    -0.330000000     3.308000000
C     2.276000000    -0.522000000     2.060000000
C     3.337000000    -0.813000000     3.169000000
O     2.916000000    -1.061000000     4.268000000
O     4.486000000    -1.068000000     2.890000000
