17
-98.09614
C     1.525000000    -2.459000000     0.466000000
H     1.515000000    -3.408000000    -0.064000000
C     0.892000000    -1.436000000    -0.236000000
H     0.507000000    -1.635000000    -1.232000000
C     0.829000000    -0.136000000     0.347000000
C     0.209000000     1.046000000    -0.481000000
H     0.590000000     1.118000000    -1.502000000
H    -0.880000000     1.086000000    -0.405000000
H     0.533000000     2.007000000    -0.077000000
C     1.250000000    -0.006000000     1.659000000
H     1.232000000     0.976000000     2.125000000
C     1.802000000    -1.021000000     2.389000000
H     2.006000000    -0.889000000     3.448000000
C     2.018000000    -2.248000000     1.750000000
C     2.419000000    -3.443000000     2.606000000
O     2.595000000    -3.289000000     3.829000000
O     2.448000000    -4.540000000     2.068000000
