17
-99.35115
C     0.043000000    -2.876000000     0.064000000
H    -0.496000000    -3.790000000    -0.173000000
C    -0.372000000    -1.635000000    -0.540000000
H    -1.166000000    -1.775000000    -1.268000000
C     0.289000000    -0.424000000    -0.191000000
C    -0.174000000     0.875000000    -0.774000000
H     0.535000000     1.235000000    -1.522000000
H    -1.224000000     0.882000000    -1.074000000
H    -0.178000000     1.626000000     0.019000000
C     1.181000000    -0.431000000     0.889000000
H     1.667000000     0.497000000     1.178000000
C     1.619000000    -1.629000000     1.412000000
H     2.397000000    -1.676000000     2.169000000
C     1.029000000    -2.891000000     0.988000000
C     1.447000000    -4.161000000     1.714000000
O     2.210000000    -4.075000000     2.658000000
O     0.978000000    -5.279000000     1.331000000
