17
-92.82983
C     0.743000000    -2.083000000     1.582000000
H     0.551000000    -3.144000000     1.715000000
C    -0.127000000    -1.494000000     0.618000000
H    -0.880000000    -2.091000000     0.108000000
C     0.068000000    -0.177000000     0.186000000
C    -0.970000000     0.421000000    -0.754000000
H    -1.339000000    -0.325000000    -1.461000000
H    -1.800000000     0.986000000    -0.323000000
H    -0.531000000     1.069000000    -1.515000000
C     1.065000000     0.591000000     0.801000000
H     1.161000000     1.647000000     0.561000000
C     1.915000000     0.047000000     1.779000000
H     2.756000000     0.615000000     2.169000000
C     1.788000000    -1.286000000     2.118000000
C     2.807000000    -1.883000000     3.034000000
O     3.492000000    -1.216000000     3.818000000
O     2.814000000    -3.084000000     3.175000000
