17
-97.28547
C     0.978000000    -1.978000000     0.940000000
H     0.826000000    -3.049000000     0.834000000
C     0.277000000    -1.269000000    -0.002000000
H    -0.421000000    -1.753000000    -0.680000000
C     0.376000000     0.129000000    -0.015000000
C    -0.358000000     0.916000000    -1.027000000
H     0.066000000     0.932000000    -2.033000000
H    -1.376000000     0.525000000    -1.069000000
H    -0.487000000     1.985000000    -0.843000000
C     1.248000000     0.798000000     0.890000000
H     1.233000000     1.884000000     0.931000000
C     1.930000000     0.027000000     1.862000000
H     2.624000000     0.572000000     2.496000000
C     1.880000000    -1.415000000     1.856000000
C     2.722000000    -2.192000000     2.908000000
O     3.174000000    -1.576000000     3.913000000
O     2.930000000    -3.422000000     2.833000000
