17
-88.72376
C     1.023000000    -2.256000000     1.035000000
H     1.055000000    -3.340000000     0.959000000
C     0.364000000    -1.499000000     0.065000000
H    -0.053000000    -1.996000000    -0.807000000
C     0.164000000    -0.125000000     0.246000000
C    -0.388000000     0.710000000    -0.876000000
H     0.324000000     1.390000000    -1.349000000
H    -0.685000000     0.082000000    -1.718000000
H    -1.242000000     1.332000000    -0.597000000
C     0.804000000     0.474000000     1.314000000
H     0.857000000     1.559000000     1.344000000
C     1.605000000    -0.229000000     2.257000000
H     2.037000000     0.271000000     3.120000000
C     1.654000000    -1.633000000     2.134000000
C     2.200000000    -2.493000000     3.165000000
O     2.544000000    -1.980000000     4.161000000
O     2.359000000    -3.657000000     2.917000000
