17
-95.31306
C     0.908000000    -2.326000000     1.282000000
H     0.835000000    -3.400000000     1.430000000
C     0.164000000    -1.622000000     0.349000000
H    -0.611000000    -2.160000000    -0.191000000
C     0.230000000    -0.230000000     0.316000000
C    -0.636000000     0.529000000    -0.633000000
H    -0.723000000     0.094000000    -1.631000000
H    -1.588000000     0.547000000    -0.099000000
H    -0.218000000     1.537000000    -0.673000000
C     1.107000000     0.416000000     1.148000000
H     1.156000000     1.486000000     0.964000000
C     1.865000000    -0.339000000     2.060000000
H     2.570000000     0.142000000     2.733000000
C     1.857000000    -1.731000000     2.084000000
C     2.697000000    -2.433000000     3.141000000
O     3.325000000    -1.780000000     3.955000000
O     2.547000000    -3.625000000     3.251000000
