17
-94.08224
C     0.662000000    -1.351000000    -1.792000000
H     0.367000000    -1.708000000    -2.776000000
C    -0.175000000    -0.376000000    -1.252000000
H    -1.050000000     0.042000000    -1.743000000
C     0.211000000     0.051000000     0.033000000
C    -0.697000000     1.037000000     0.733000000
H    -0.672000000     1.976000000     0.177000000
H    -1.706000000     0.619000000     0.697000000
H    -0.378000000     1.266000000     1.752000000
C     1.341000000    -0.378000000     0.695000000
H     1.611000000    -0.022000000     1.685000000
C     2.231000000    -1.242000000     0.094000000
H     3.138000000    -1.598000000     0.576000000
C     1.864000000    -1.777000000    -1.161000000
C     2.748000000    -2.854000000    -1.745000000
O     3.676000000    -3.460000000    -1.121000000
O     2.353000000    -3.392000000    -2.752000000
