17
-89.92400
C     0.527000000    -2.766000000     1.533000000
H     0.021000000    -3.637000000     1.938000000
C    -0.180000000    -1.822000000     0.871000000
H    -1.263000000    -1.908000000     0.859000000
C     0.507000000    -0.713000000     0.372000000
C    -0.368000000     0.231000000    -0.306000000
H    -1.398000000     0.220000000     0.056000000
H    -0.005000000     1.252000000    -0.173000000
H    -0.399000000     0.032000000    -1.380000000
C     1.898000000    -0.585000000     0.535000000
H     2.338000000     0.345000000     0.184000000
C     2.604000000    -1.488000000     1.269000000
H     3.687000000    -1.416000000     1.320000000
C     1.939000000    -2.638000000     1.719000000
C     2.682000000    -3.721000000     2.436000000
O     3.835000000    -3.611000000     2.744000000
O     2.130000000    -4.728000000     2.890000000
