17
-88.21630
C     0.886000000    -2.727000000     0.736000000
H     0.611000000    -3.778000000     0.780000000
C    -0.097000000    -1.816000000     0.353000000
H    -1.000000000    -2.244000000    -0.075000000
C     0.276000000    -0.480000000     0.196000000
C    -0.732000000     0.539000000    -0.192000000
H    -0.267000000     1.434000000    -0.610000000
H    -1.468000000     0.155000000    -0.902000000
H    -1.323000000     0.848000000     0.672000000
C     1.561000000    -0.001000000     0.496000000
H     1.809000000     1.045000000     0.335000000
C     2.534000000    -0.850000000     0.971000000
H     3.521000000    -0.428000000     1.144000000
C     2.211000000    -2.256000000     0.945000000
C     3.206000000    -3.278000000     1.348000000
O     4.324000000    -2.998000000     1.608000000
O     2.781000000    -4.378000000     1.651000000
