17
-95.05324
C     0.336000000    -1.739000000     3.122000000
H    -0.095000000    -2.479000000     3.792000000
C    -0.354000000    -1.445000000     1.953000000
H    -1.339000000    -1.838000000     1.717000000
C     0.115000000    -0.453000000     1.056000000
C    -0.650000000    -0.110000000    -0.162000000
H    -0.994000000     0.927000000    -0.162000000
H    -0.124000000    -0.366000000    -1.084000000
H    -1.475000000    -0.815000000    -0.283000000
C     1.281000000     0.266000000     1.331000000
H     1.668000000     1.053000000     0.689000000
C     1.950000000    -0.110000000     2.483000000
H     2.873000000     0.396000000     2.751000000
C     1.518000000    -1.068000000     3.393000000
C     2.276000000    -1.404000000     4.604000000
O     3.230000000    -0.731000000     4.897000000
O     1.993000000    -2.355000000     5.296000000
