17
-95.12211
C     1.234000000    -2.187000000     0.975000000
H     1.275000000    -3.256000000     1.166000000
C     0.188000000    -1.565000000     0.178000000
H    -0.492000000    -2.294000000    -0.256000000
C     0.155000000    -0.172000000    -0.052000000
C    -0.917000000     0.591000000    -0.766000000
H    -1.439000000    -0.076000000    -1.455000000
H    -1.570000000     1.013000000     0.001000000
H    -0.443000000     1.475000000    -1.196000000
C     1.118000000     0.642000000     0.578000000
H     1.147000000     1.725000000     0.494000000
C     2.141000000     0.082000000     1.345000000
H     2.954000000     0.701000000     1.716000000
C     2.214000000    -1.375000000     1.501000000
C     3.229000000    -1.969000000     2.414000000
O     4.087000000    -1.223000000     2.880000000
O     3.128000000    -3.136000000     2.647000000
