17
-93.68092
C     0.789000000    -2.739000000     0.570000000
H     0.468000000    -3.778000000     0.566000000
C    -0.109000000    -1.834000000    -0.103000000
H    -1.092000000    -2.202000000    -0.387000000
C     0.251000000    -0.531000000    -0.178000000
C    -0.567000000     0.465000000    -0.868000000
H    -1.012000000    -0.063000000    -1.714000000
H    -1.346000000     0.842000000    -0.202000000
H    -0.113000000     1.321000000    -1.371000000
C     1.539000000    -0.107000000     0.232000000
H     1.842000000     0.934000000     0.154000000
C     2.418000000    -0.977000000     0.896000000
H     3.359000000    -0.640000000     1.323000000
C     2.004000000    -2.332000000     1.082000000
C     2.952000000    -3.302000000     1.635000000
O     3.927000000    -2.873000000     2.231000000
O     2.769000000    -4.494000000     1.574000000
