17
-93.34150
C     0.983000000    -2.310000000     0.485000000
H     0.632000000    -3.338000000     0.461000000
C     0.125000000    -1.474000000    -0.125000000
H    -0.760000000    -1.821000000    -0.653000000
C     0.351000000    -0.101000000    -0.074000000
C    -0.525000000     0.921000000    -0.774000000
H    -1.176000000     1.382000000    -0.029000000
H    -0.005000000     1.722000000    -1.304000000
H    -1.207000000     0.363000000    -1.419000000
C     1.513000000     0.407000000     0.541000000
H     1.735000000     1.471000000     0.566000000
C     2.417000000    -0.464000000     1.088000000
H     3.322000000    -0.044000000     1.520000000
C     2.063000000    -1.846000000     1.171000000
C     2.951000000    -2.751000000     1.927000000
O     3.881000000    -2.379000000     2.605000000
O     2.738000000    -3.958000000     1.787000000
