17
-88.07296
C     0.332000000    -2.318000000     2.089000000
H     0.098000000    -3.370000000     2.232000000
C    -0.006000000    -1.645000000     0.942000000
H    -0.288000000    -2.295000000     0.117000000
C     0.098000000    -0.236000000     0.829000000
C    -0.023000000     0.567000000    -0.463000000
H     0.663000000     1.407000000    -0.337000000
H     0.388000000    -0.031000000    -1.279000000
H    -1.030000000     0.963000000    -0.608000000
C     0.541000000     0.450000000     1.988000000
H     0.514000000     1.537000000     1.995000000
C     0.748000000    -0.256000000     3.252000000
H     0.951000000     0.222000000     4.208000000
C     0.593000000    -1.629000000     3.274000000
C     0.757000000    -2.332000000     4.579000000
O     0.815000000    -1.679000000     5.595000000
O     1.092000000    -3.477000000     4.573000000
