17
-95.69489
C     0.803000000    -1.757000000     1.924000000
H     0.795000000    -2.816000000     2.171000000
C     0.049000000    -1.384000000     0.817000000
H    -0.599000000    -2.131000000     0.364000000
C     0.057000000    -0.021000000     0.473000000
C    -0.584000000     0.358000000    -0.829000000
H     0.118000000     0.244000000    -1.657000000
H    -1.515000000    -0.139000000    -1.110000000
H    -0.767000000     1.426000000    -0.966000000
C     0.663000000     0.936000000     1.242000000
H     0.666000000     1.977000000     0.932000000
C     1.323000000     0.574000000     2.412000000
H     1.829000000     1.349000000     2.982000000
C     1.427000000    -0.794000000     2.782000000
C     2.137000000    -1.217000000     4.027000000
O     2.469000000    -0.462000000     4.900000000
O     2.436000000    -2.402000000     4.117000000
