17
-85.61881
C     0.591000000    -2.160000000     1.850000000
H     0.556000000    -3.246000000     1.893000000
C    -0.046000000    -1.512000000     0.771000000
H    -0.360000000    -2.128000000    -0.068000000
C    -0.057000000    -0.135000000     0.689000000
C    -0.559000000     0.530000000    -0.542000000
H    -0.507000000     1.620000000    -0.596000000
H    -0.132000000     0.135000000    -1.466000000
H    -1.643000000     0.403000000    -0.553000000
C     0.438000000     0.601000000     1.777000000
H     0.368000000     1.680000000     1.665000000
C     0.811000000     0.006000000     3.000000000
H     1.169000000     0.616000000     3.826000000
C     1.068000000    -1.398000000     2.931000000
C     1.645000000    -2.070000000     4.091000000
O     2.261000000    -1.301000000     4.873000000
O     1.995000000    -3.214000000     4.002000000
