17
-91.60546
C     0.008000000    -1.600000000     1.640000000
H    -0.299000000    -2.604000000     1.923000000
C    -0.251000000    -1.234000000     0.340000000
H    -0.802000000    -1.901000000    -0.318000000
C     0.045000000     0.009000000    -0.072000000
C    -0.312000000     0.492000000    -1.437000000
H    -0.555000000     1.545000000    -1.592000000
H     0.587000000     0.155000000    -1.958000000
H    -1.143000000    -0.116000000    -1.799000000
C     0.664000000     0.863000000     0.826000000
H     0.837000000     1.887000000     0.503000000
C     0.935000000     0.508000000     2.079000000
H     1.516000000     1.198000000     2.685000000
C     0.644000000    -0.780000000     2.542000000
C     1.120000000    -1.257000000     3.964000000
O     1.802000000    -0.539000000     4.717000000
O     0.877000000    -2.409000000     4.309000000
