17
-95.45836
C     0.056000000    -1.718000000     2.336000000
H    -0.302000000    -2.626000000     2.814000000
C    -0.148000000    -1.491000000     0.999000000
H    -0.650000000    -2.238000000     0.390000000
C     0.114000000    -0.264000000     0.438000000
C    -0.356000000     0.108000000    -0.996000000
H     0.226000000    -0.263000000    -1.843000000
H    -1.407000000    -0.150000000    -1.141000000
H    -0.329000000     1.197000000    -1.064000000
C     0.596000000     0.744000000     1.246000000
H     0.854000000     1.718000000     0.840000000
C     0.976000000     0.492000000     2.599000000
H     1.473000000     1.296000000     3.136000000
C     0.770000000    -0.797000000     3.126000000
C     1.163000000    -1.107000000     4.540000000
O     1.808000000    -0.296000000     5.178000000
O     1.057000000    -2.265000000     4.995000000
