17
-95.48531
C     1.118000000    -2.065000000     1.717000000
H     1.872000000    -2.847000000     1.686000000
C     0.457000000    -1.743000000     0.570000000
H     0.640000000    -2.292000000    -0.351000000
C    -0.421000000    -0.661000000     0.638000000
C    -0.934000000    -0.012000000    -0.588000000
H    -1.157000000     1.048000000    -0.446000000
H    -0.189000000    -0.077000000    -1.384000000
H    -1.797000000    -0.516000000    -1.027000000
C    -0.541000000     0.088000000     1.805000000
H    -1.294000000     0.872000000     1.799000000
C     0.164000000    -0.269000000     2.947000000
H     0.015000000     0.302000000     3.860000000
C     0.992000000    -1.378000000     2.896000000
C     1.537000000    -1.877000000     4.197000000
O     1.162000000    -1.483000000     5.273000000
O     2.424000000    -2.726000000     4.109000000
