17
-91.40698
C     0.738000000    -1.536000000    -1.387000000
H     0.486000000    -1.891000000    -2.383000000
C    -0.130000000    -0.552000000    -0.855000000
H    -1.003000000    -0.259000000    -1.431000000
C     0.220000000     0.021000000     0.311000000
C    -0.547000000     1.303000000     0.667000000
H    -0.728000000     2.016000000    -0.139000000
H    -1.547000000     1.024000000     1.006000000
H    -0.072000000     1.726000000     1.554000000
C     1.301000000    -0.448000000     1.023000000
H     1.603000000    -0.064000000     1.994000000
C     2.127000000    -1.419000000     0.431000000
H     3.065000000    -1.688000000     0.910000000
C     1.861000000    -2.022000000    -0.772000000
C     2.685000000    -3.128000000    -1.282000000
O     3.566000000    -3.620000000    -0.608000000
O     2.362000000    -3.579000000    -2.354000000
