17
-97.12237
C     1.494000000    -2.218000000     0.733000000
H     2.079000000    -3.046000000     0.341000000
C     0.894000000    -1.333000000    -0.172000000
H     1.117000000    -1.383000000    -1.234000000
C     0.007000000    -0.353000000     0.304000000
C    -0.804000000     0.484000000    -0.640000000
H    -0.468000000     1.520000000    -0.571000000
H    -0.527000000     0.246000000    -1.669000000
H    -1.862000000     0.234000000    -0.537000000
C    -0.115000000    -0.180000000     1.732000000
H    -0.771000000     0.586000000     2.139000000
C     0.566000000    -1.033000000     2.561000000
H     0.364000000    -0.945000000     3.625000000
C     1.403000000    -2.020000000     2.077000000
C     2.118000000    -2.810000000     3.107000000
O     1.950000000    -2.420000000     4.274000000
O     2.804000000    -3.743000000     2.821000000
