17
-100.69790
C     1.816000000    -1.578000000     0.612000000
H     2.713000000    -2.149000000     0.383000000
C     1.155000000    -0.934000000    -0.462000000
H     1.395000000    -1.062000000    -1.515000000
C     0.030000000    -0.198000000    -0.125000000
C    -0.691000000     0.590000000    -1.187000000
H    -0.652000000     0.004000000    -2.107000000
H    -1.736000000     0.649000000    -0.876000000
H    -0.328000000     1.613000000    -1.307000000
C    -0.366000000    -0.093000000     1.204000000
H    -1.236000000     0.545000000     1.331000000
C     0.296000000    -0.702000000     2.277000000
H    -0.037000000    -0.518000000     3.295000000
C     1.366000000    -1.517000000     1.919000000
C     2.139000000    -2.263000000     2.981000000
O     1.840000000    -2.033000000     4.202000000
O     3.000000000    -3.046000000     2.662000000
