17
-97.78116
C     1.943000000    -1.585000000     1.489000000
H     2.938000000    -2.019000000     1.550000000
C     1.434000000    -0.972000000     0.319000000
H     2.066000000    -0.997000000    -0.564000000
C     0.159000000    -0.404000000     0.268000000
C    -0.428000000     0.321000000    -0.916000000
H    -0.151000000    -0.085000000    -1.891000000
H    -1.517000000     0.265000000    -0.862000000
H    -0.203000000     1.388000000    -0.981000000
C    -0.544000000    -0.242000000     1.469000000
H    -1.500000000     0.271000000     1.542000000
C    -0.014000000    -0.825000000     2.622000000
H    -0.540000000    -0.807000000     3.573000000
C     1.207000000    -1.478000000     2.661000000
C     1.609000000    -2.159000000     3.977000000
O     0.980000000    -1.995000000     4.983000000
O     2.541000000    -2.934000000     3.958000000
