17
-103.94791
C     1.251000000    -2.247000000     1.278000000
H     1.875000000    -3.125000000     1.134000000
C     0.764000000    -1.464000000     0.237000000
H     1.086000000    -1.664000000    -0.782000000
C    -0.061000000    -0.366000000     0.548000000
C    -0.607000000     0.442000000    -0.583000000
H    -1.618000000     0.763000000    -0.323000000
H    -0.046000000     1.377000000    -0.649000000
H    -0.600000000    -0.040000000    -1.563000000
C    -0.390000000    -0.016000000     1.892000000
H    -1.025000000     0.827000000     2.153000000
C     0.090000000    -0.823000000     2.935000000
H    -0.106000000    -0.507000000     3.956000000
C     0.822000000    -1.984000000     2.619000000
C     1.319000000    -2.872000000     3.799000000
O     1.155000000    -2.365000000     4.933000000
O     2.021000000    -3.885000000     3.550000000
