17
-94.34545
C     1.263000000    -2.234000000     1.007000000
H     1.861000000    -3.099000000     0.730000000
C     0.674000000    -1.485000000     0.024000000
H     0.778000000    -1.726000000    -1.030000000
C    -0.135000000    -0.410000000     0.374000000
C    -0.716000000     0.488000000    -0.710000000
H    -1.627000000     0.960000000    -0.337000000
H    -0.046000000     1.321000000    -0.933000000
H    -1.005000000    -0.024000000    -1.630000000
C    -0.105000000     0.063000000     1.706000000
H    -0.768000000     0.885000000     1.967000000
C     0.652000000    -0.603000000     2.664000000
H     0.544000000    -0.284000000     3.697000000
C     1.253000000    -1.823000000     2.343000000
C     1.886000000    -2.661000000     3.481000000
O     2.133000000    -2.130000000     4.497000000
O     2.124000000    -3.855000000     3.319000000
