17
-94.67212
C     2.492000000    -1.915000000     0.565000000
H     3.366000000    -2.360000000     0.096000000
C     1.436000000    -1.422000000    -0.257000000
H     1.485000000    -1.514000000    -1.339000000
C     0.372000000    -0.828000000     0.361000000
C    -0.687000000    -0.246000000    -0.501000000
H    -1.397000000    -0.983000000    -0.882000000
H    -1.291000000     0.491000000     0.033000000
H    -0.072000000     0.219000000    -1.274000000
C     0.406000000    -0.713000000     1.785000000
H    -0.469000000    -0.264000000     2.247000000
C     1.492000000    -1.089000000     2.574000000
H     1.429000000    -0.876000000     3.638000000
C     2.506000000    -1.812000000     1.975000000
C     3.599000000    -2.395000000     2.824000000
O     3.720000000    -2.020000000     3.950000000
O     4.443000000    -3.142000000     2.319000000
