17
-91.49219
C     1.709000000    -1.665000000     0.355000000
H     2.350000000    -2.443000000    -0.052000000
C     0.924000000    -0.885000000    -0.488000000
H     1.237000000    -0.938000000    -1.528000000
C    -0.141000000    -0.140000000     0.021000000
C    -0.999000000     0.789000000    -0.896000000
H    -1.096000000     0.426000000    -1.921000000
H    -2.016000000     0.790000000    -0.499000000
H    -0.599000000     1.804000000    -0.839000000
C    -0.277000000    -0.015000000     1.406000000
H    -1.089000000     0.634000000     1.726000000
C     0.620000000    -0.714000000     2.251000000
H     0.429000000    -0.611000000     3.316000000
C     1.599000000    -1.573000000     1.769000000
C     2.496000000    -2.395000000     2.697000000
O     2.539000000    -2.232000000     3.872000000
O     3.262000000    -3.225000000     2.232000000
