17
-91.36295
C     2.151000000    -1.773000000    -0.157000000
H     2.928000000    -2.175000000    -0.803000000
C     1.269000000    -0.966000000    -0.816000000
H     1.484000000    -0.656000000    -1.835000000
C     0.138000000    -0.535000000    -0.143000000
C    -0.720000000     0.559000000    -0.719000000
H    -0.894000000     0.345000000    -1.776000000
H    -1.691000000     0.556000000    -0.219000000
H    -0.097000000     1.456000000    -0.696000000
C    -0.094000000    -0.722000000     1.194000000
H    -0.870000000    -0.230000000     1.775000000
C     0.804000000    -1.567000000     1.841000000
H     0.617000000    -1.815000000     2.883000000
C     1.969000000    -2.029000000     1.170000000
C     2.856000000    -2.911000000     2.012000000
O     2.523000000    -3.212000000     3.133000000
O     3.802000000    -3.378000000     1.416000000
