17
-97.26407
C     2.700000000    -1.197000000     0.092000000
H     3.540000000    -1.575000000    -0.486000000
C     1.519000000    -0.819000000    -0.582000000
H     1.412000000    -0.935000000    -1.657000000
C     0.417000000    -0.373000000     0.154000000
C    -0.847000000     0.083000000    -0.496000000
H    -1.606000000     0.590000000     0.103000000
H    -0.529000000     0.735000000    -1.314000000
H    -1.292000000    -0.827000000    -0.902000000
C     0.536000000    -0.313000000     1.536000000
H    -0.276000000     0.041000000     2.165000000
C     1.688000000    -0.655000000     2.192000000
H     1.767000000    -0.646000000     3.276000000
C     2.804000000    -1.092000000     1.463000000
C     3.990000000    -1.685000000     2.181000000
O     4.024000000    -1.675000000     3.378000000
O     4.893000000    -2.249000000     1.582000000
