17
-95.04503
C     2.731000000    -0.879000000     0.503000000
H     3.554000000    -1.584000000     0.421000000
C     1.487000000    -1.107000000    -0.045000000
H     1.321000000    -1.943000000    -0.719000000
C     0.441000000    -0.164000000     0.181000000
C    -0.938000000    -0.426000000    -0.451000000
H    -1.738000000     0.275000000    -0.205000000
H    -0.793000000    -0.446000000    -1.533000000
H    -1.296000000    -1.418000000    -0.168000000
C     0.711000000     1.025000000     0.834000000
H     0.010000000     1.764000000     1.213000000
C     1.960000000     1.260000000     1.351000000
H     2.176000000     2.163000000     1.916000000
C     2.972000000     0.277000000     1.285000000
C     4.249000000     0.447000000     2.091000000
O     4.401000000     1.381000000     2.800000000
O     5.067000000    -0.449000000     2.017000000
