17
-90.04240
C     1.980000000     0.017000000     1.138000000
H     2.985000000    -0.322000000     0.900000000
C     1.022000000    -0.070000000     0.139000000
H     1.251000000    -0.611000000    -0.775000000
C    -0.210000000     0.473000000     0.303000000
C    -1.195000000     0.304000000    -0.846000000
H    -1.063000000     1.085000000    -1.597000000
H    -1.306000000    -0.675000000    -1.316000000
H    -2.231000000     0.379000000    -0.511000000
C    -0.561000000     1.132000000     1.520000000
H    -1.550000000     1.517000000     1.754000000
C     0.453000000     1.335000000     2.457000000
H     0.297000000     1.936000000     3.349000000
C     1.751000000     0.726000000     2.366000000
C     2.985000000     1.035000000     3.162000000
O     2.850000000     1.808000000     4.090000000
O     4.098000000     0.564000000     2.978000000
