17
-96.33571
C     2.922000000    -0.024000000     0.911000000
H     3.831000000    -0.615000000     0.835000000
C     1.866000000    -0.401000000     0.133000000
H     2.017000000    -1.177000000    -0.612000000
C     0.648000000     0.237000000     0.364000000
C    -0.474000000    -0.145000000    -0.511000000
H    -0.169000000    -0.495000000    -1.499000000
H    -0.951000000    -1.009000000    -0.044000000
H    -1.187000000     0.682000000    -0.487000000
C     0.448000000     1.118000000     1.449000000
H    -0.505000000     1.613000000     1.618000000
C     1.498000000     1.551000000     2.197000000
H     1.426000000     2.316000000     2.966000000
C     2.785000000     0.979000000     1.926000000
C     3.975000000     1.402000000     2.799000000
O     3.851000000     2.280000000     3.631000000
O     5.046000000     0.902000000     2.540000000
