17
-94.04544
C     2.686000000     0.119000000     0.675000000
H     3.680000000    -0.266000000     0.459000000
C     1.569000000    -0.328000000     0.044000000
H     1.639000000    -1.160000000    -0.652000000
C     0.344000000     0.219000000     0.323000000
C    -0.899000000    -0.466000000    -0.305000000
H    -1.754000000     0.214000000    -0.315000000
H    -0.685000000    -0.716000000    -1.346000000
H    -1.039000000    -1.322000000     0.357000000
C     0.090000000     1.149000000     1.363000000
H    -0.901000000     1.471000000     1.675000000
C     1.206000000     1.613000000     1.980000000
H     1.185000000     2.339000000     2.788000000
C     2.532000000     1.168000000     1.632000000
C     3.744000000     1.592000000     2.455000000
O     3.596000000     2.141000000     3.528000000
O     4.881000000     1.098000000     2.160000000
