17
-92.15609
C     0.184000000    -1.944000000    -1.459000000
H    -0.015000000    -2.311000000    -2.463000000
C    -0.346000000    -0.691000000    -1.140000000
H    -0.806000000    -0.091000000    -1.922000000
C    -0.060000000    -0.046000000     0.085000000
C    -0.634000000     1.307000000     0.229000000
H    -0.337000000     2.098000000    -0.463000000
H    -1.722000000     1.344000000     0.305000000
H    -0.376000000     1.768000000     1.186000000
C     0.678000000    -0.767000000     1.043000000
H     0.922000000    -0.240000000     1.962000000
C     1.025000000    -2.069000000     0.780000000
H     1.403000000    -2.669000000     1.603000000
C     0.790000000    -2.693000000    -0.456000000
C     1.230000000    -4.109000000    -0.770000000
O     1.656000000    -4.821000000     0.081000000
O     1.251000000    -4.508000000    -1.917000000
