17
-91.81594
C     2.681000000     0.357000000    -0.077000000
H     3.645000000     0.138000000    -0.529000000
C     1.493000000    -0.105000000    -0.663000000
H     1.545000000    -0.738000000    -1.546000000
C     0.261000000     0.198000000    -0.034000000
C    -1.186000000    -0.180000000    -0.537000000
H    -1.399000000    -1.213000000    -0.254000000
H    -1.983000000     0.446000000    -0.131000000
H    -1.253000000    -0.146000000    -1.626000000
C     0.316000000     0.804000000     1.257000000
H    -0.553000000     0.806000000     1.910000000
C     1.552000000     1.131000000     1.853000000
H     1.423000000     1.635000000     2.807000000
C     2.688000000     1.078000000     1.069000000
C     3.982000000     1.525000000     1.643000000
O     4.039000000     2.002000000     2.749000000
O     5.046000000     1.377000000     0.947000000
