17
-88.63089
C     2.994000000     0.311000000     0.832000000
H     3.949000000    -0.178000000     0.656000000
C     1.890000000    -0.144000000     0.076000000
H     2.045000000    -1.061000000    -0.486000000
C     0.651000000     0.378000000     0.335000000
C    -0.520000000    -0.174000000    -0.234000000
H    -0.445000000    -0.275000000    -1.319000000
H    -0.855000000    -1.134000000     0.163000000
H    -1.326000000     0.507000000     0.047000000
C     0.473000000     1.390000000     1.290000000
H    -0.535000000     1.768000000     1.436000000
C     1.582000000     1.944000000     1.925000000
H     1.412000000     2.823000000     2.540000000
C     2.863000000     1.378000000     1.729000000
C     4.030000000     1.914000000     2.487000000
O     3.891000000     2.824000000     3.264000000
O     5.115000000     1.484000000     2.271000000
