17
-85.73940
C     2.998000000    -0.284000000     0.637000000
H     3.789000000    -1.023000000     0.542000000
C     1.865000000    -0.481000000    -0.145000000
H     1.824000000    -1.266000000    -0.895000000
C     0.725000000     0.342000000    -0.022000000
C    -0.523000000     0.107000000    -0.877000000
H    -1.255000000     0.909000000    -0.764000000
H    -0.152000000     0.155000000    -1.903000000
H    -0.962000000    -0.892000000    -0.824000000
C     0.719000000     1.330000000     0.966000000
H    -0.178000000     1.940000000     1.026000000
C     1.753000000     1.449000000     1.819000000
H     1.719000000     2.128000000     2.667000000
C     2.916000000     0.692000000     1.651000000
C     4.051000000     0.832000000     2.603000000
O     4.250000000     1.882000000     3.237000000
O     4.727000000    -0.064000000     2.867000000
