17
-94.34949
C     2.390000000     0.815000000     1.556000000
H     3.476000000     0.826000000     1.537000000
C     1.590000000     0.332000000     0.465000000
H     2.014000000    -0.158000000    -0.408000000
C     0.227000000     0.357000000     0.593000000
C    -0.599000000    -0.421000000    -0.508000000
H    -1.414000000     0.212000000    -0.863000000
H     0.024000000    -0.734000000    -1.349000000
H    -1.025000000    -1.370000000    -0.177000000
C    -0.398000000     0.965000000     1.700000000
H    -1.476000000     0.838000000     1.763000000
C     0.372000000     1.485000000     2.712000000
H    -0.082000000     2.067000000     3.510000000
C     1.743000000     1.460000000     2.624000000
C     2.623000000     2.030000000     3.648000000
O     2.089000000     2.258000000     4.781000000
O     3.807000000     2.192000000     3.502000000
