17
-96.31007
C     2.632000000    -0.395000000     0.577000000
H     3.605000000    -0.798000000     0.307000000
C     1.521000000    -0.404000000    -0.351000000
H     1.565000000    -0.846000000    -1.343000000
C     0.289000000     0.099000000     0.007000000
C    -0.832000000     0.316000000    -0.973000000
H    -1.615000000    -0.419000000    -0.772000000
H    -1.300000000     1.288000000    -0.804000000
H    -0.500000000     0.208000000    -2.007000000
C     0.022000000     0.571000000     1.267000000
H    -0.968000000     0.922000000     1.546000000
C     1.108000000     0.588000000     2.167000000
H     1.016000000     0.930000000     3.195000000
C     2.395000000     0.113000000     1.850000000
C     3.496000000    -0.114000000     2.920000000
O     3.282000000     0.275000000     4.054000000
O     4.457000000    -0.833000000     2.706000000
