17
-95.59206
C     2.678000000    -0.130000000     1.373000000
H     3.651000000    -0.610000000     1.311000000
C     1.711000000    -0.463000000     0.487000000
H     1.952000000    -1.168000000    -0.304000000
C     0.506000000     0.132000000     0.520000000
C    -0.571000000    -0.371000000    -0.352000000
H    -0.205000000    -0.637000000    -1.346000000
H    -1.017000000    -1.315000000    -0.032000000
H    -1.339000000     0.391000000    -0.498000000
C     0.206000000     1.050000000     1.524000000
H    -0.796000000     1.464000000     1.594000000
C     1.220000000     1.406000000     2.442000000
H     0.872000000     2.047000000     3.248000000
C     2.458000000     0.836000000     2.379000000
C     3.510000000     1.326000000     3.354000000
O     3.296000000     2.236000000     4.132000000
O     4.529000000     0.670000000     3.402000000
