17
-96.28358
C     2.470000000     0.049000000     0.106000000
H     3.468000000    -0.222000000    -0.228000000
C     1.315000000    -0.202000000    -0.640000000
H     1.445000000    -0.674000000    -1.610000000
C     0.074000000     0.154000000    -0.216000000
C    -1.133000000     0.038000000    -1.085000000
H    -1.245000000    -0.949000000    -1.540000000
H    -2.029000000     0.224000000    -0.490000000
H    -1.165000000     0.798000000    -1.868000000
C    -0.072000000     0.602000000     1.118000000
H    -1.005000000     0.765000000     1.652000000
C     1.091000000     0.835000000     1.868000000
H     0.856000000     1.044000000     2.909000000
C     2.369000000     0.537000000     1.412000000
C     3.468000000     0.676000000     2.436000000
O     3.261000000     0.642000000     3.664000000
O     4.560000000     0.667000000     1.944000000
