17
-92.01891
C     2.611000000     0.030000000     1.282000000
H     3.590000000    -0.439000000     1.223000000
C     1.665000000    -0.278000000     0.326000000
H     1.844000000    -0.979000000    -0.486000000
C     0.449000000     0.446000000     0.166000000
C    -0.495000000     0.321000000    -0.970000000
H    -0.044000000    -0.377000000    -1.678000000
H    -1.489000000    -0.093000000    -0.786000000
H    -0.663000000     1.257000000    -1.507000000
C     0.242000000     1.395000000     1.163000000
H    -0.681000000     1.964000000     1.074000000
C     1.116000000     1.604000000     2.264000000
H     0.919000000     2.403000000     2.974000000
C     2.406000000     1.064000000     2.222000000
C     3.487000000     1.461000000     3.285000000
O     3.278000000     2.339000000     4.095000000
O     4.408000000     0.714000000     3.411000000
