17
-93.38593
C     2.715000000     0.731000000     0.982000000
H     3.738000000     0.552000000     0.659000000
C     1.638000000     0.453000000     0.152000000
H     1.707000000     0.151000000    -0.890000000
C     0.360000000     0.562000000     0.623000000
C    -0.911000000     0.493000000    -0.156000000
H    -1.122000000    -0.534000000    -0.462000000
H    -1.676000000     0.861000000     0.531000000
H    -0.931000000     1.112000000    -1.055000000
C     0.156000000     0.921000000     1.957000000
H    -0.823000000     1.147000000     2.373000000
C     1.179000000     1.194000000     2.814000000
H     1.004000000     1.555000000     3.824000000
C     2.512000000     1.065000000     2.361000000
C     3.615000000     1.350000000     3.299000000
O     3.426000000     1.148000000     4.484000000
O     4.753000000     1.601000000     2.909000000
