17
-95.71746
C     2.842000000     0.401000000     1.078000000
H     3.880000000     0.356000000     0.758000000
C     1.857000000     0.198000000     0.105000000
H     2.068000000     0.062000000    -0.952000000
C     0.531000000     0.271000000     0.461000000
C    -0.570000000     0.255000000    -0.595000000
H    -0.953000000    -0.759000000    -0.729000000
H    -1.350000000     0.954000000    -0.286000000
H    -0.206000000     0.464000000    -1.603000000
C     0.217000000     0.470000000     1.805000000
H    -0.858000000     0.535000000     1.954000000
C     1.212000000     0.695000000     2.795000000
H     0.985000000     0.794000000     3.854000000
C     2.522000000     0.710000000     2.444000000
C     3.620000000     1.144000000     3.454000000
O     3.343000000     1.307000000     4.611000000
O     4.787000000     1.104000000     3.084000000
