17
-84.67392
C     2.462000000    -0.370000000     0.136000000
H     3.355000000    -0.719000000    -0.377000000
C     1.229000000    -0.361000000    -0.504000000
H     1.090000000    -0.925000000    -1.423000000
C     0.127000000     0.265000000     0.088000000
C    -1.174000000     0.307000000    -0.656000000
H    -1.550000000    -0.657000000    -1.006000000
H    -1.991000000     0.682000000    -0.036000000
H    -1.027000000     0.884000000    -1.572000000
C     0.352000000     0.925000000     1.282000000
H    -0.426000000     1.192000000     1.992000000
C     1.632000000     0.958000000     1.868000000
H     1.676000000     1.289000000     2.903000000
C     2.724000000     0.277000000     1.269000000
C     4.097000000     0.360000000     1.878000000
O     4.394000000     1.137000000     2.737000000
O     4.896000000    -0.558000000     1.701000000
