17
-96.17255
C     3.015000000     0.262000000     0.380000000
H     3.943000000     0.137000000    -0.172000000
C     1.799000000     0.265000000    -0.303000000
H     1.751000000     0.103000000    -1.376000000
C     0.596000000     0.546000000     0.387000000
C    -0.745000000     0.526000000    -0.309000000
H    -0.932000000    -0.276000000    -1.026000000
H    -1.521000000     0.405000000     0.450000000
H    -0.942000000     1.485000000    -0.792000000
C     0.653000000     0.869000000     1.674000000
H    -0.244000000     1.073000000     2.253000000
C     1.859000000     0.836000000     2.384000000
H     1.811000000     1.108000000     3.435000000
C     3.068000000     0.614000000     1.739000000
C     4.413000000     1.006000000     2.305000000
O     4.481000000     1.447000000     3.425000000
O     5.431000000     0.793000000     1.658000000
