17
-93.14878
C     2.741000000    -0.252000000    -0.208000000
H     3.637000000    -0.556000000    -0.744000000
C     1.436000000    -0.072000000    -0.755000000
H     1.298000000    -0.162000000    -1.830000000
C     0.292000000     0.247000000     0.005000000
C    -1.055000000     0.433000000    -0.558000000
H    -1.095000000     0.384000000    -1.648000000
H    -1.686000000    -0.380000000    -0.196000000
H    -1.475000000     1.411000000    -0.314000000
C     0.519000000     0.367000000     1.360000000
H    -0.399000000     0.599000000     1.894000000
C     1.753000000     0.068000000     1.958000000
H     1.798000000    -0.009000000     3.041000000
C     2.851000000    -0.292000000     1.183000000
C     4.191000000    -0.637000000     1.820000000
O     4.315000000    -0.702000000     3.023000000
O     5.037000000    -1.162000000     1.125000000
