17
-96.60677
C     2.719000000    -0.278000000    -0.014000000
H     3.494000000    -0.660000000    -0.673000000
C     1.378000000    -0.193000000    -0.482000000
H     1.250000000    -0.567000000    -1.494000000
C     0.333000000     0.247000000     0.293000000
C    -1.095000000     0.186000000    -0.312000000
H    -1.772000000     0.465000000     0.498000000
H    -1.161000000     0.935000000    -1.105000000
H    -1.274000000    -0.783000000    -0.783000000
C     0.600000000     0.570000000     1.614000000
H    -0.189000000     0.919000000     2.276000000
C     1.912000000     0.628000000     2.034000000
H     2.139000000     0.957000000     3.045000000
C     2.978000000     0.177000000     1.268000000
C     4.418000000     0.043000000     1.783000000
O     4.742000000     0.348000000     2.937000000
O     5.189000000    -0.648000000     1.136000000
