17
-89.74046
C     2.443000000    -0.367000000     0.011000000
H     3.317000000    -0.588000000    -0.597000000
C     1.181000000    -0.222000000    -0.586000000
H     1.036000000    -0.226000000    -1.663000000
C     0.158000000     0.181000000     0.261000000
C    -1.177000000     0.320000000    -0.403000000
H    -1.935000000     0.701000000     0.284000000
H    -1.211000000     0.977000000    -1.274000000
H    -1.622000000    -0.643000000    -0.662000000
C     0.246000000     0.190000000     1.610000000
H    -0.573000000     0.608000000     2.190000000
C     1.495000000     0.052000000     2.206000000
H     1.702000000     0.038000000     3.273000000
C     2.623000000    -0.281000000     1.393000000
C     3.953000000    -0.512000000     2.022000000
O     4.073000000    -0.576000000     3.190000000
O     5.005000000    -0.679000000     1.341000000
