17
-86.10906
C     2.582000000     0.053000000     0.410000000
H     3.599000000    -0.189000000     0.114000000
C     1.504000000    -0.081000000    -0.424000000
H     1.599000000    -0.420000000    -1.452000000
C     0.291000000     0.177000000     0.040000000
C    -0.875000000     0.098000000    -0.924000000
H    -1.669000000    -0.628000000    -0.738000000
H    -1.398000000     1.050000000    -0.807000000
H    -0.527000000     0.055000000    -1.958000000
C     0.015000000     0.567000000     1.350000000
H    -1.024000000     0.755000000     1.608000000
C     1.074000000     0.745000000     2.214000000
H     0.963000000     1.060000000     3.249000000
C     2.405000000     0.568000000     1.761000000
C     3.537000000     0.533000000     2.795000000
O     3.480000000     1.217000000     3.786000000
O     4.603000000     0.085000000     2.467000000
