17
-98.25139
C     1.485000000    -1.909000000     0.896000000
H     1.464000000    -2.900000000     1.343000000
C     0.291000000    -1.263000000     0.568000000
H    -0.666000000    -1.709000000     0.827000000
C     0.304000000     0.046000000     0.136000000
C    -0.942000000     0.811000000    -0.178000000
H    -1.400000000     0.398000000    -1.079000000
H    -1.712000000     0.768000000     0.595000000
H    -0.723000000     1.869000000    -0.336000000
C     1.511000000     0.750000000     0.100000000
H     1.606000000     1.808000000    -0.130000000
C     2.748000000     0.113000000     0.340000000
H     3.713000000     0.613000000     0.358000000
C     2.724000000    -1.237000000     0.825000000
C     4.071000000    -1.945000000     1.183000000
O     5.155000000    -1.344000000     1.251000000
O     4.046000000    -3.138000000     1.312000000
