17
-95.75433
C     0.848000000    -2.593000000    -1.077000000
H     0.389000000    -3.536000000    -1.361000000
C     0.065000000    -1.511000000    -0.702000000
H    -0.995000000    -1.729000000    -0.602000000
C     0.646000000    -0.294000000    -0.438000000
C    -0.255000000     0.840000000     0.055000000
H    -0.638000000     0.594000000     1.048000000
H     0.289000000     1.786000000     0.085000000
H    -1.075000000     1.072000000    -0.628000000
C     1.978000000    -0.129000000    -0.480000000
H     2.409000000     0.828000000    -0.196000000
C     2.829000000    -1.152000000    -0.837000000
H     3.909000000    -1.028000000    -0.843000000
C     2.259000000    -2.437000000    -1.197000000
C     3.041000000    -3.654000000    -1.341000000
O     4.237000000    -3.501000000    -1.160000000
O     2.513000000    -4.729000000    -1.631000000
