17
-97.21484
C     1.079000000    -3.098000000    -0.082000000
H     0.618000000    -4.082000000    -0.048000000
C     0.192000000    -2.021000000    -0.172000000
H    -0.847000000    -2.339000000    -0.207000000
C     0.695000000    -0.734000000    -0.301000000
C    -0.217000000     0.420000000    -0.539000000
H    -0.009000000     1.105000000     0.286000000
H    -0.012000000     0.886000000    -1.505000000
H    -1.299000000     0.289000000    -0.472000000
C     2.055000000    -0.569000000    -0.277000000
H     2.449000000     0.438000000    -0.390000000
C     2.952000000    -1.628000000    -0.236000000
H     4.022000000    -1.446000000    -0.169000000
C     2.466000000    -2.888000000    -0.020000000
C     3.462000000    -3.998000000     0.328000000
O     4.673000000    -3.805000000     0.213000000
O     2.968000000    -5.009000000     0.718000000
