17
-97.39630
C     0.125000000    -2.663000000     0.709000000
H    -0.560000000    -3.466000000     0.968000000
C    -0.441000000    -1.475000000     0.259000000
H    -1.519000000    -1.400000000     0.140000000
C     0.371000000    -0.338000000     0.112000000
C    -0.187000000     0.950000000    -0.511000000
H     0.590000000     1.702000000    -0.358000000
H    -0.314000000     0.794000000    -1.584000000
H    -1.160000000     1.290000000    -0.150000000
C     1.716000000    -0.404000000     0.487000000
H     2.310000000     0.501000000     0.386000000
C     2.316000000    -1.656000000     0.814000000
H     3.397000000    -1.662000000     0.930000000
C     1.519000000    -2.801000000     0.910000000
C     2.067000000    -4.074000000     1.416000000
O     3.273000000    -4.173000000     1.563000000
O     1.337000000    -4.957000000     1.815000000
