17
-94.56851
C    -0.593000000    -3.365000000     0.195000000
H    -1.312000000    -4.136000000     0.463000000
C    -0.926000000    -1.999000000     0.294000000
H    -1.917000000    -1.744000000     0.660000000
C     0.030000000    -0.963000000    -0.006000000
C    -0.227000000     0.540000000     0.099000000
H     0.711000000     1.073000000    -0.067000000
H    -0.966000000     0.878000000    -0.631000000
H    -0.516000000     0.801000000     1.119000000
C     1.205000000    -1.400000000    -0.548000000
H     1.948000000    -0.665000000    -0.847000000
C     1.534000000    -2.772000000    -0.752000000
H     2.466000000    -3.006000000    -1.259000000
C     0.634000000    -3.733000000    -0.344000000
C     1.081000000    -5.143000000    -0.469000000
O     2.262000000    -5.375000000    -0.657000000
O     0.329000000    -6.018000000    -0.169000000
