17
-100.77909
C    -0.139000000    -2.514000000     0.473000000
H    -0.745000000    -3.320000000     0.878000000
C    -0.801000000    -1.340000000     0.105000000
H    -1.883000000    -1.367000000     0.207000000
C    -0.062000000    -0.172000000    -0.234000000
C    -0.731000000     1.155000000    -0.361000000
H    -0.578000000     1.702000000     0.571000000
H    -0.262000000     1.722000000    -1.169000000
H    -1.801000000     1.046000000    -0.547000000
C     1.306000000    -0.217000000    -0.182000000
H     1.915000000     0.683000000    -0.158000000
C     1.975000000    -1.446000000     0.007000000
H     3.057000000    -1.511000000    -0.065000000
C     1.255000000    -2.619000000     0.288000000
C     1.951000000    -3.913000000     0.674000000
O     3.180000000    -3.834000000     0.778000000
O     1.335000000    -4.941000000     0.821000000
