17
-94.14755
C    -0.345000000    -2.140000000     0.519000000
H    -1.051000000    -2.923000000     0.783000000
C    -0.857000000    -0.919000000     0.124000000
H    -1.916000000    -0.833000000    -0.105000000
C    -0.040000000     0.191000000    -0.080000000
C    -0.600000000     1.411000000    -0.674000000
H    -1.464000000     1.658000000    -0.054000000
H     0.039000000     2.296000000    -0.669000000
H    -0.886000000     1.224000000    -1.711000000
C     1.291000000     0.022000000     0.069000000
H     2.002000000     0.833000000    -0.063000000
C     1.835000000    -1.277000000     0.466000000
H     2.904000000    -1.403000000     0.623000000
C     0.979000000    -2.355000000     0.686000000
C     1.529000000    -3.691000000     1.249000000
O     2.763000000    -3.789000000     1.512000000
O     0.833000000    -4.634000000     1.507000000
