17
-95.50019
C     0.372000000    -2.988000000     0.396000000
H    -0.300000000    -3.812000000     0.621000000
C    -0.126000000    -1.703000000     0.283000000
H    -1.208000000    -1.602000000     0.315000000
C     0.656000000    -0.605000000    -0.025000000
C    -0.026000000     0.707000000    -0.268000000
H     0.659000000     1.558000000    -0.283000000
H    -0.522000000     0.706000000    -1.240000000
H    -0.783000000     0.974000000     0.472000000
C     2.050000000    -0.764000000    -0.128000000
H     2.623000000     0.090000000    -0.480000000
C     2.574000000    -2.055000000     0.016000000
H     3.612000000    -2.181000000    -0.282000000
C     1.727000000    -3.193000000     0.204000000
C     2.309000000    -4.527000000     0.180000000
O     3.417000000    -4.702000000    -0.262000000
O     1.670000000    -5.473000000     0.595000000
