17
-88.41722
C    -0.070000000    -2.774000000    -0.127000000
H    -0.681000000    -3.670000000    -0.199000000
C    -0.630000000    -1.533000000    -0.243000000
H    -1.709000000    -1.435000000    -0.332000000
C     0.136000000    -0.353000000    -0.351000000
C    -0.531000000     0.952000000    -0.419000000
H     0.150000000     1.674000000    -0.874000000
H    -1.497000000     0.938000000    -0.927000000
H    -0.657000000     1.361000000     0.586000000
C     1.536000000    -0.541000000    -0.313000000
H     2.156000000     0.344000000    -0.438000000
C     2.067000000    -1.839000000    -0.196000000
H     3.136000000    -1.979000000    -0.339000000
C     1.308000000    -2.960000000    -0.165000000
C     1.971000000    -4.402000000    -0.142000000
O     3.140000000    -4.554000000    -0.162000000
O     1.315000000    -5.402000000     0.128000000
