17
-97.82275
C    -0.377000000    -2.497000000     0.365000000
H    -1.045000000    -3.314000000     0.625000000
C    -0.843000000    -1.213000000     0.159000000
H    -1.865000000    -0.981000000     0.449000000
C    -0.012000000    -0.157000000    -0.180000000
C    -0.651000000     1.228000000    -0.401000000
H    -0.735000000     1.942000000     0.421000000
H    -0.283000000     1.744000000    -1.290000000
H    -1.705000000     1.071000000    -0.639000000
C     1.378000000    -0.400000000    -0.327000000
H     2.091000000     0.350000000    -0.658000000
C     1.872000000    -1.708000000    -0.159000000
H     2.941000000    -1.895000000    -0.214000000
C     0.942000000    -2.775000000     0.122000000
C     1.507000000    -4.126000000     0.580000000
O     2.744000000    -4.229000000     0.783000000
O     0.740000000    -5.044000000     0.867000000
