17
-100.73340
C     1.703000000    -2.083000000    -0.177000000
H     2.782000000    -2.198000000    -0.243000000
C     1.188000000    -0.841000000    -0.208000000
H     1.909000000    -0.032000000    -0.287000000
C    -0.158000000    -0.657000000    -0.037000000
C    -0.787000000     0.745000000     0.024000000
H    -1.387000000     0.849000000     0.930000000
H    -0.007000000     1.476000000     0.248000000
H    -1.233000000     1.003000000    -0.939000000
C    -1.008000000    -1.767000000     0.112000000
H    -2.072000000    -1.571000000     0.217000000
C    -0.468000000    -3.053000000     0.097000000
H    -1.150000000    -3.889000000     0.228000000
C     0.909000000    -3.250000000    -0.002000000
C     1.546000000    -4.656000000     0.003000000
O     0.753000000    -5.609000000     0.154000000
O     2.742000000    -4.834000000    -0.223000000
