17
-90.63471
C     0.013000000    -2.376000000    -0.991000000
H    -0.536000000    -3.262000000    -1.299000000
C    -0.653000000    -1.289000000    -0.510000000
H    -1.713000000    -1.355000000    -0.277000000
C     0.077000000    -0.157000000    -0.176000000
C    -0.607000000     1.129000000     0.190000000
H     0.197000000     1.867000000     0.149000000
H    -1.294000000     1.416000000    -0.608000000
H    -1.028000000     1.057000000     1.195000000
C     1.444000000    -0.204000000    -0.173000000
H     2.099000000     0.604000000     0.144000000
C     2.099000000    -1.235000000    -0.744000000
H     3.174000000    -1.122000000    -0.858000000
C     1.392000000    -2.340000000    -1.161000000
C     2.084000000    -3.473000000    -1.885000000
O     3.310000000    -3.635000000    -1.773000000
O     1.523000000    -4.283000000    -2.595000000
