17
-94.15885
C     0.747000000    -2.420000000     0.742000000
H     1.436000000    -3.057000000     1.292000000
C     0.812000000    -1.064000000     0.859000000
H     1.577000000    -0.501000000     1.386000000
C    -0.133000000    -0.292000000     0.183000000
C    -0.232000000     1.203000000     0.362000000
H     0.074000000     1.512000000     1.364000000
H     0.507000000     1.766000000    -0.213000000
H    -1.264000000     1.455000000     0.112000000
C    -1.028000000    -0.829000000    -0.682000000
H    -1.684000000    -0.189000000    -1.266000000
C    -1.109000000    -2.204000000    -0.831000000
H    -1.858000000    -2.711000000    -1.434000000
C    -0.190000000    -2.987000000    -0.094000000
C    -0.173000000    -4.441000000    -0.360000000
O    -1.110000000    -4.996000000    -0.887000000
O     0.804000000    -5.057000000    -0.010000000
