17
-88.02200
C    -0.345000000    -2.470000000    -0.376000000
H    -1.158000000    -3.191000000    -0.360000000
C    -0.740000000    -1.157000000    -0.334000000
H    -1.783000000    -0.892000000    -0.176000000
C     0.282000000    -0.171000000    -0.362000000
C    -0.228000000     1.264000000    -0.213000000
H     0.641000000     1.924000000    -0.164000000
H    -0.667000000     1.548000000    -1.172000000
H    -0.993000000     1.424000000     0.550000000
C     1.575000000    -0.548000000    -0.421000000
H     2.291000000     0.269000000    -0.435000000
C     1.999000000    -1.820000000    -0.561000000
H     3.065000000    -2.017000000    -0.629000000
C     1.013000000    -2.812000000    -0.423000000
C     1.423000000    -4.232000000    -0.236000000
O     2.609000000    -4.485000000    -0.126000000
O     0.649000000    -5.127000000    -0.388000000
