17
-90.98507
C    -0.557000000    -2.416000000    -0.447000000
H    -1.322000000    -3.179000000    -0.561000000
C    -0.889000000    -1.062000000    -0.528000000
H    -1.924000000    -0.742000000    -0.617000000
C     0.117000000    -0.164000000    -0.183000000
C    -0.182000000     1.286000000    -0.121000000
H    -0.407000000     1.678000000    -1.115000000
H    -1.038000000     1.490000000     0.525000000
H     0.680000000     1.838000000     0.259000000
C     1.449000000    -0.554000000     0.031000000
H     2.189000000     0.219000000     0.224000000
C     1.830000000    -1.823000000    -0.263000000
H     2.880000000    -2.090000000    -0.356000000
C     0.838000000    -2.793000000    -0.515000000
C     1.317000000    -4.145000000    -0.962000000
O     2.483000000    -4.400000000    -1.180000000
O     0.520000000    -5.046000000    -1.007000000
