17
-90.46939
C     0.490000000    -2.822000000    -0.898000000
H    -0.052000000    -3.733000000    -1.138000000
C    -0.222000000    -1.698000000    -0.525000000
H    -1.308000000    -1.692000000    -0.561000000
C     0.442000000    -0.499000000    -0.332000000
C    -0.256000000     0.826000000    -0.053000000
H     0.515000000     1.592000000    -0.157000000
H    -1.009000000     0.951000000    -0.834000000
H    -0.705000000     0.799000000     0.942000000
C     1.841000000    -0.544000000    -0.308000000
H     2.378000000     0.323000000     0.069000000
C     2.568000000    -1.670000000    -0.604000000
H     3.647000000    -1.709000000    -0.476000000
C     1.850000000    -2.822000000    -0.816000000
C     2.587000000    -4.142000000    -0.786000000
O     3.784000000    -4.194000000    -0.636000000
O     2.030000000    -5.207000000    -0.962000000
