17
-95.40879
C     0.808000000    -2.658000000    -0.908000000
H     0.223000000    -3.561000000    -1.063000000
C    -0.023000000    -1.510000000    -0.822000000
H    -1.069000000    -1.608000000    -1.100000000
C     0.513000000    -0.332000000    -0.388000000
C    -0.345000000     0.941000000    -0.359000000
H    -1.328000000     0.765000000    -0.801000000
H    -0.482000000     1.275000000     0.672000000
H     0.192000000     1.713000000    -0.913000000
C     1.861000000    -0.300000000     0.011000000
H     2.243000000     0.589000000     0.507000000
C     2.680000000    -1.398000000    -0.272000000
H     3.744000000    -1.388000000    -0.052000000
C     2.175000000    -2.609000000    -0.674000000
C     3.087000000    -3.781000000    -1.055000000
O     4.320000000    -3.700000000    -0.894000000
O     2.609000000    -4.873000000    -1.240000000
