17
-94.03757
C    -0.157000000    -2.724000000    -0.431000000
H    -0.764000000    -3.602000000    -0.639000000
C    -0.770000000    -1.453000000    -0.341000000
H    -1.830000000    -1.293000000    -0.520000000
C    -0.051000000    -0.304000000    -0.063000000
C    -0.701000000     1.059000000     0.041000000
H     0.023000000     1.811000000    -0.277000000
H    -1.633000000     1.106000000    -0.527000000
H    -0.930000000     1.344000000     1.070000000
C     1.333000000    -0.428000000    -0.096000000
H     1.912000000     0.491000000    -0.059000000
C     1.967000000    -1.678000000    -0.185000000
H     3.051000000    -1.768000000    -0.165000000
C     1.253000000    -2.883000000    -0.278000000
C     1.857000000    -4.176000000    -0.574000000
O     2.971000000    -4.364000000    -0.205000000
O     1.125000000    -5.110000000    -0.975000000
