17
-99.44500
C     0.414000000    -3.015000000     0.657000000
H     0.987000000    -3.644000000     1.333000000
C     0.613000000    -1.653000000     0.780000000
H     1.265000000    -1.291000000     1.571000000
C    -0.061000000    -0.805000000    -0.107000000
C     0.206000000     0.665000000     0.005000000
H     1.170000000     0.691000000    -0.508000000
H    -0.566000000     1.297000000    -0.439000000
H     0.311000000     1.099000000     1.001000000
C    -0.876000000    -1.319000000    -1.103000000
H    -1.378000000    -0.652000000    -1.799000000
C    -1.073000000    -2.694000000    -1.204000000
H    -1.696000000    -3.103000000    -1.995000000
C    -0.379000000    -3.549000000    -0.329000000
C    -0.425000000    -5.075000000    -0.530000000
O    -0.752000000    -5.513000000    -1.607000000
O     0.068000000    -5.765000000     0.336000000
