17
-97.69317
C    -0.994000000    -2.031000000     0.954000000
H    -1.874000000    -2.640000000     1.144000000
C    -1.118000000    -0.749000000     0.367000000
H    -2.109000000    -0.434000000     0.052000000
C     0.076000000     0.007000000     0.163000000
C     0.079000000     1.419000000    -0.413000000
H    -0.367000000     1.415000000    -1.410000000
H    -0.572000000     2.007000000     0.236000000
H     1.049000000     1.870000000    -0.634000000
C     1.312000000    -0.474000000     0.669000000
H     2.113000000     0.260000000     0.664000000
C     1.439000000    -1.750000000     1.208000000
H     2.388000000    -2.204000000     1.479000000
C     0.293000000    -2.550000000     1.360000000
C     0.396000000    -3.876000000     2.012000000
O     1.544000000    -4.300000000     2.145000000
O    -0.551000000    -4.456000000     2.523000000
