17
-88.69128
C     0.070000000    -2.489000000    -0.436000000
H    -0.509000000    -3.380000000    -0.666000000
C    -0.673000000    -1.284000000    -0.339000000
H    -1.738000000    -1.212000000    -0.544000000
C     0.009000000    -0.098000000    -0.153000000
C    -0.772000000     1.155000000    -0.148000000
H    -1.373000000     1.276000000    -1.052000000
H    -1.464000000     1.132000000     0.696000000
H    -0.072000000     1.985000000    -0.033000000
C     1.320000000    -0.112000000     0.054000000
H     1.863000000     0.825000000     0.144000000
C     2.049000000    -1.315000000    -0.166000000
H     3.126000000    -1.237000000    -0.041000000
C     1.463000000    -2.510000000    -0.441000000
C     2.162000000    -3.867000000    -0.669000000
O     3.309000000    -3.982000000    -0.363000000
O     1.583000000    -4.862000000    -1.072000000
