17
-99.34643
C    -0.408000000    -2.665000000    -0.293000000
H    -1.073000000    -3.523000000    -0.337000000
C    -0.793000000    -1.338000000    -0.319000000
H    -1.864000000    -1.201000000    -0.447000000
C     0.053000000    -0.232000000    -0.320000000
C    -0.451000000     1.167000000    -0.396000000
H     0.332000000     1.884000000    -0.652000000
H    -1.231000000     1.228000000    -1.159000000
H    -0.806000000     1.488000000     0.585000000
C     1.420000000    -0.503000000    -0.222000000
H     2.114000000     0.333000000    -0.250000000
C     1.864000000    -1.833000000    -0.262000000
H     2.943000000    -1.956000000    -0.313000000
C     0.958000000    -2.883000000    -0.200000000
C     1.462000000    -4.291000000    -0.029000000
O     2.680000000    -4.489000000     0.068000000
O     0.709000000    -5.248000000     0.166000000
