17
-91.38845
C    -0.374000000    -3.365000000     0.598000000
H    -1.036000000    -4.222000000     0.500000000
C    -0.595000000    -2.158000000    -0.048000000
H    -1.504000000    -2.078000000    -0.638000000
C     0.234000000    -1.071000000     0.192000000
C    -0.046000000     0.271000000    -0.385000000
H     0.816000000     0.609000000    -0.964000000
H    -1.008000000     0.348000000    -0.896000000
H    -0.156000000     1.030000000     0.392000000
C     1.326000000    -1.157000000     1.019000000
H     2.076000000    -0.374000000     1.090000000
C     1.640000000    -2.376000000     1.581000000
H     2.457000000    -2.355000000     2.297000000
C     0.775000000    -3.450000000     1.440000000
C     0.824000000    -4.612000000     2.375000000
O     1.346000000    -4.362000000     3.453000000
O     0.116000000    -5.590000000     2.281000000
