17
-88.51146
C    -0.056000000    -2.260000000     3.120000000
H    -0.502000000    -2.468000000     4.090000000
C    -0.560000000    -1.243000000     2.269000000
H    -1.347000000    -0.576000000     2.612000000
C     0.106000000    -1.012000000     1.025000000
C    -0.320000000     0.060000000     0.092000000
H     0.076000000     0.920000000     0.636000000
H     0.203000000    -0.079000000    -0.856000000
H    -1.400000000    -0.060000000    -0.017000000
C     1.083000000    -1.961000000     0.648000000
H     1.568000000    -1.887000000    -0.322000000
C     1.651000000    -2.880000000     1.546000000
H     2.513000000    -3.493000000     1.295000000
C     1.133000000    -2.932000000     2.826000000
C     1.753000000    -3.901000000     3.864000000
O     2.817000000    -4.390000000     3.643000000
O     1.203000000    -4.185000000     4.887000000
