17
-98.60748
C    -0.492000000    -1.849000000     2.285000000
H    -1.155000000    -2.321000000     3.006000000
C    -0.898000000    -0.919000000     1.323000000
H    -1.936000000    -0.617000000     1.204000000
C     0.038000000    -0.239000000     0.553000000
C    -0.317000000     0.843000000    -0.427000000
H    -0.194000000     1.830000000     0.023000000
H     0.245000000     0.836000000    -1.363000000
H    -1.396000000     0.800000000    -0.587000000
C     1.387000000    -0.527000000     0.647000000
H     2.185000000    -0.021000000     0.109000000
C     1.776000000    -1.457000000     1.586000000
H     2.806000000    -1.786000000     1.688000000
C     0.887000000    -2.069000000     2.444000000
C     1.455000000    -2.993000000     3.558000000
O     2.534000000    -3.554000000     3.492000000
O     0.759000000    -3.170000000     4.546000000
