17
-89.52800
C     1.204000000    -2.513000000    -0.373000000
H     2.209000000    -2.834000000    -0.635000000
C     1.063000000    -1.148000000    -0.224000000
H     1.791000000    -0.392000000    -0.504000000
C    -0.113000000    -0.616000000     0.422000000
C    -0.120000000     0.889000000     0.568000000
H     0.585000000     1.298000000     1.295000000
H     0.068000000     1.281000000    -0.433000000
H    -1.131000000     1.203000000     0.835000000
C    -1.121000000    -1.505000000     0.767000000
H    -1.982000000    -1.144000000     1.324000000
C    -0.943000000    -2.884000000     0.625000000
H    -1.709000000    -3.525000000     1.054000000
C     0.223000000    -3.391000000     0.013000000
C     0.464000000    -4.869000000    -0.128000000
O    -0.498000000    -5.540000000    -0.343000000
O     1.566000000    -5.301000000    -0.417000000
