17
-98.11472
C     0.306000000    -0.974000000     3.031000000
H    -0.158000000    -1.065000000     4.009000000
C    -0.213000000    -0.018000000     2.166000000
H    -0.960000000     0.691000000     2.515000000
C     0.177000000    -0.034000000     0.838000000
C    -0.274000000     0.953000000    -0.238000000
H     0.188000000     0.812000000    -1.217000000
H    -1.313000000     0.717000000    -0.476000000
H    -0.160000000     1.979000000     0.119000000
C     1.216000000    -0.902000000     0.475000000
H     1.556000000    -0.871000000    -0.557000000
C     1.762000000    -1.847000000     1.324000000
H     2.607000000    -2.453000000     1.006000000
C     1.332000000    -1.894000000     2.622000000
C     1.944000000    -2.946000000     3.513000000
O     2.677000000    -3.855000000     3.143000000
O     1.707000000    -2.733000000     4.708000000
