17
-96.71879
C    -0.648000000    -2.000000000     2.451000000
H    -1.505000000    -2.454000000     2.943000000
C    -0.843000000    -0.792000000     1.703000000
H    -1.803000000    -0.283000000     1.690000000
C     0.220000000    -0.270000000     0.982000000
C    -0.036000000     0.884000000    -0.013000000
H     0.732000000     1.030000000    -0.775000000
H    -1.005000000     0.771000000    -0.505000000
H    -0.110000000     1.766000000     0.626000000
C     1.502000000    -0.843000000     1.125000000
H     2.354000000    -0.458000000     0.570000000
C     1.725000000    -1.938000000     1.939000000
H     2.736000000    -2.336000000     1.975000000
C     0.621000000    -2.540000000     2.610000000
C     0.836000000    -3.694000000     3.477000000
O     1.887000000    -4.308000000     3.400000000
O    -0.104000000    -4.210000000     4.078000000
