17
-96.64900
C     0.033000000    -2.091000000     2.192000000
H    -0.667000000    -2.732000000     2.722000000
C    -0.536000000    -1.168000000     1.300000000
H    -1.606000000    -1.054000000     1.145000000
C     0.275000000    -0.328000000     0.546000000
C    -0.414000000     0.684000000    -0.308000000
H    -0.529000000     1.627000000     0.230000000
H     0.014000000     0.915000000    -1.286000000
H    -1.387000000     0.254000000    -0.555000000
C     1.611000000    -0.351000000     0.669000000
H     2.248000000     0.357000000     0.145000000
C     2.167000000    -1.294000000     1.568000000
H     3.245000000    -1.350000000     1.701000000
C     1.397000000    -2.119000000     2.386000000
C     1.951000000    -3.069000000     3.441000000
O     3.150000000    -3.185000000     3.725000000
O     1.175000000    -3.904000000     3.912000000
