17
-89.39189
C     0.231000000    -1.829000000     2.565000000
H    -0.090000000    -1.902000000     3.600000000
C    -0.116000000    -0.644000000     1.946000000
H    -0.633000000     0.138000000     2.497000000
C     0.095000000    -0.495000000     0.536000000
C    -0.259000000     0.830000000    -0.091000000
H    -0.619000000     1.510000000     0.684000000
H     0.724000000     1.212000000    -0.373000000
H    -0.845000000     0.862000000    -1.012000000
C     0.861000000    -1.472000000    -0.120000000
H     1.162000000    -1.440000000    -1.164000000
C     1.336000000    -2.546000000     0.560000000
H     1.858000000    -3.337000000     0.027000000
C     0.940000000    -2.767000000     1.882000000
C     1.365000000    -4.025000000     2.620000000
O     1.927000000    -4.935000000     2.026000000
O     1.367000000    -4.026000000     3.807000000
