17
-98.60554
C     0.860000000    -1.333000000     2.069000000
H     0.916000000    -1.270000000     3.153000000
C     0.338000000    -0.186000000     1.449000000
H     0.184000000     0.674000000     2.096000000
C     0.086000000    -0.172000000     0.058000000
C    -0.278000000     1.129000000    -0.656000000
H     0.366000000     1.957000000    -0.353000000
H    -0.137000000     0.999000000    -1.731000000
H    -1.307000000     1.446000000    -0.473000000
C     0.393000000    -1.359000000    -0.703000000
H     0.231000000    -1.478000000    -1.772000000
C     0.907000000    -2.501000000    -0.045000000
H     1.035000000    -3.460000000    -0.540000000
C     1.127000000    -2.483000000     1.340000000
C     1.537000000    -3.705000000     2.100000000
O     1.277000000    -4.751000000     1.537000000
O     2.111000000    -3.674000000     3.170000000
