17
-99.17114
C    -0.633000000    -1.693000000     1.854000000
H    -1.123000000    -1.917000000     2.797000000
C    -0.575000000    -0.330000000     1.433000000
H    -0.930000000     0.479000000     2.066000000
C     0.067000000    -0.024000000     0.211000000
C     0.241000000     1.424000000    -0.268000000
H     0.799000000     1.414000000    -1.206000000
H    -0.768000000     1.831000000    -0.367000000
H     0.789000000     1.935000000     0.526000000
C     0.494000000    -1.080000000    -0.631000000
H     0.895000000    -0.903000000    -1.626000000
C     0.455000000    -2.398000000    -0.161000000
H     0.802000000    -3.176000000    -0.837000000
C    -0.074000000    -2.720000000     1.047000000
C    -0.147000000    -4.134000000     1.551000000
O     0.641000000    -4.879000000     1.030000000
O    -0.762000000    -4.383000000     2.592000000
