17
-99.82613
C     0.257000000    -1.751000000     2.154000000
H     0.110000000    -1.956000000     3.211000000
C    -0.079000000    -0.528000000     1.612000000
H    -0.600000000     0.266000000     2.141000000
C     0.147000000    -0.249000000     0.250000000
C    -0.193000000     1.115000000    -0.377000000
H    -0.223000000     1.908000000     0.373000000
H     0.324000000     1.393000000    -1.297000000
H    -1.219000000     1.045000000    -0.743000000
C     0.830000000    -1.189000000    -0.506000000
H     1.069000000    -1.049000000    -1.557000000
C     1.144000000    -2.421000000     0.036000000
H     1.800000000    -3.141000000    -0.447000000
C     0.768000000    -2.733000000     1.371000000
C     1.157000000    -4.089000000     1.931000000
O     2.046000000    -4.785000000     1.379000000
O     0.550000000    -4.489000000     2.927000000
