17
-91.99309
C     0.152000000    -1.892000000     2.214000000
H    -0.259000000    -1.954000000     3.218000000
C    -0.080000000    -0.779000000     1.406000000
H    -0.534000000     0.122000000     1.813000000
C     0.306000000    -0.750000000     0.107000000
C     0.114000000     0.454000000    -0.757000000
H     0.337000000     0.180000000    -1.790000000
H    -0.870000000     0.923000000    -0.692000000
H     0.860000000     1.174000000    -0.414000000
C     1.070000000    -1.752000000    -0.383000000
H     1.404000000    -1.713000000    -1.417000000
C     1.432000000    -2.824000000     0.411000000
H     2.022000000    -3.634000000    -0.009000000
C     0.916000000    -2.963000000     1.739000000
C     1.494000000    -3.975000000     2.693000000
O     2.331000000    -4.793000000     2.284000000
O     0.998000000    -4.190000000     3.774000000
