17
-96.51132
C    -0.078000000    -1.695000000     2.046000000
H    -0.502000000    -1.794000000     3.042000000
C    -0.125000000    -0.450000000     1.365000000
H    -0.651000000     0.375000000     1.838000000
C     0.496000000    -0.315000000     0.174000000
C     0.476000000     0.959000000    -0.524000000
H    -0.483000000     1.255000000    -0.953000000
H     0.976000000     1.740000000     0.053000000
H     1.120000000     0.938000000    -1.406000000
C     1.087000000    -1.413000000    -0.474000000
H     1.531000000    -1.220000000    -1.447000000
C     1.044000000    -2.659000000     0.098000000
H     1.487000000    -3.533000000    -0.373000000
C     0.498000000    -2.866000000     1.401000000
C     0.498000000    -4.230000000     2.079000000
O     1.449000000    -5.003000000     1.799000000
O    -0.235000000    -4.490000000     3.034000000
