17
-91.14575
C    -1.255000000    -2.248000000     1.374000000
H    -1.950000000    -2.628000000     2.118000000
C    -1.128000000    -0.899000000     1.183000000
H    -1.558000000    -0.221000000     1.916000000
C    -0.344000000    -0.421000000     0.159000000
C    -0.178000000     1.125000000    -0.051000000
H     0.757000000     1.402000000    -0.542000000
H    -0.913000000     1.493000000    -0.771000000
H    -0.366000000     1.631000000     0.898000000
C     0.203000000    -1.359000000    -0.680000000
H     0.677000000    -0.981000000    -1.583000000
C     0.081000000    -2.719000000    -0.541000000
H     0.590000000    -3.345000000    -1.269000000
C    -0.714000000    -3.205000000     0.450000000
C    -0.841000000    -4.674000000     0.788000000
O    -0.443000000    -5.507000000    -0.003000000
O    -1.175000000    -5.018000000     1.888000000
