17
-85.86661
C     1.701000000    -1.811000000    -1.145000000
H     2.605000000    -2.034000000    -1.706000000
C     1.369000000    -0.510000000    -0.802000000
H     1.945000000     0.300000000    -1.243000000
C     0.290000000    -0.287000000     0.103000000
C    -0.178000000     1.103000000     0.534000000
H    -1.147000000     1.342000000     0.089000000
H    -0.320000000     1.159000000     1.615000000
H     0.535000000     1.877000000     0.242000000
C    -0.346000000    -1.399000000     0.679000000
H    -1.169000000    -1.246000000     1.372000000
C    -0.031000000    -2.679000000     0.312000000
H    -0.404000000    -3.560000000     0.828000000
C     1.063000000    -2.911000000    -0.520000000
C     1.494000000    -4.312000000    -0.847000000
O     0.945000000    -5.228000000    -0.345000000
O     2.227000000    -4.557000000    -1.739000000
