17
-88.54755
C     0.197000000    -2.030000000     2.543000000
H    -0.075000000    -2.238000000     3.575000000
C    -0.234000000    -0.948000000     1.812000000
H    -0.801000000    -0.180000000     2.332000000
C     0.050000000    -0.739000000     0.469000000
C    -0.244000000     0.590000000    -0.201000000
H     0.649000000     1.047000000    -0.631000000
H    -0.919000000     0.611000000    -1.059000000
H    -0.646000000     1.229000000     0.589000000
C     1.010000000    -1.539000000    -0.142000000
H     1.311000000    -1.447000000    -1.183000000
C     1.447000000    -2.714000000     0.522000000
H     2.123000000    -3.373000000    -0.016000000
C     1.085000000    -2.936000000     1.885000000
C     1.515000000    -4.166000000     2.585000000
O     2.197000000    -4.934000000     1.989000000
O     1.274000000    -4.354000000     3.748000000
