17
-99.29230
C     0.091000000    -1.731000000     2.213000000
H    -0.366000000    -1.848000000     3.193000000
C    -0.149000000    -0.532000000     1.577000000
H    -0.792000000     0.242000000     1.988000000
C     0.400000000    -0.315000000     0.319000000
C    -0.037000000     0.863000000    -0.422000000
H    -1.068000000     0.685000000    -0.732000000
H    -0.050000000     1.693000000     0.289000000
H     0.676000000     1.038000000    -1.230000000
C     1.242000000    -1.234000000    -0.223000000
H     1.756000000    -1.125000000    -1.175000000
C     1.507000000    -2.411000000     0.455000000
H     2.156000000    -3.121000000    -0.050000000
C     0.955000000    -2.684000000     1.722000000
C     1.269000000    -4.001000000     2.444000000
O     2.093000000    -4.807000000     1.988000000
O     0.633000000    -4.193000000     3.462000000
