17
-100.64618
C    -0.096000000    -1.163000000     1.987000000
H    -0.470000000    -1.318000000     2.996000000
C    -0.225000000     0.053000000     1.412000000
H    -0.891000000     0.801000000     1.834000000
C     0.244000000     0.256000000     0.123000000
C    -0.043000000     1.501000000    -0.643000000
H     0.681000000     1.545000000    -1.461000000
H    -1.016000000     1.541000000    -1.136000000
H     0.080000000     2.411000000    -0.053000000
C     0.889000000    -0.786000000    -0.551000000
H     1.292000000    -0.596000000    -1.542000000
C     1.081000000    -2.048000000     0.046000000
H     1.608000000    -2.872000000    -0.429000000
C     0.600000000    -2.204000000     1.334000000
C     0.794000000    -3.561000000     1.985000000
O     1.411000000    -4.428000000     1.380000000
O     0.314000000    -3.769000000     3.083000000
