17
-98.65740
C    -1.654000000    -1.877000000     0.655000000
H    -2.693000000    -2.191000000     0.599000000
C    -1.232000000    -0.759000000    -0.033000000
H    -1.914000000    -0.205000000    -0.673000000
C     0.046000000    -0.219000000     0.097000000
C     0.465000000     1.084000000    -0.556000000
H    -0.316000000     1.789000000    -0.261000000
H     1.473000000     1.297000000    -0.194000000
H     0.541000000     1.013000000    -1.643000000
C     0.860000000    -0.798000000     1.031000000
H     1.823000000    -0.328000000     1.211000000
C     0.525000000    -1.979000000     1.688000000
H     1.170000000    -2.377000000     2.467000000
C    -0.752000000    -2.564000000     1.462000000
C    -1.109000000    -3.778000000     2.269000000
O    -0.221000000    -4.308000000     2.920000000
O    -2.270000000    -4.238000000     2.333000000
