17
-88.15981
C    -0.101000000    -2.363000000     1.907000000
H    -0.510000000    -2.696000000     2.858000000
C    -0.171000000    -1.039000000     1.339000000
H    -0.657000000    -0.220000000     1.864000000
C     0.328000000    -0.788000000     0.043000000
C     0.220000000     0.619000000    -0.509000000
H    -0.783000000     0.998000000    -0.716000000
H     0.566000000     1.362000000     0.212000000
H     0.803000000     0.852000000    -1.403000000
C     0.986000000    -1.739000000    -0.689000000
H     1.349000000    -1.593000000    -1.703000000
C     0.996000000    -3.062000000    -0.173000000
H     1.299000000    -3.885000000    -0.815000000
C     0.523000000    -3.352000000     1.125000000
C     0.684000000    -4.749000000     1.588000000
O     1.181000000    -5.600000000     0.834000000
O     0.021000000    -5.095000000     2.490000000
