17
-95.39818
C    -2.135000000    -2.213000000     1.452000000
H    -3.059000000    -2.746000000     1.242000000
C    -1.754000000    -1.209000000     0.611000000
H    -2.372000000    -0.988000000    -0.255000000
C    -0.460000000    -0.625000000     0.666000000
C     0.086000000     0.303000000    -0.331000000
H    -0.280000000     1.298000000    -0.073000000
H     1.168000000     0.312000000    -0.481000000
H    -0.201000000     0.008000000    -1.343000000
C     0.353000000    -0.998000000     1.746000000
H     1.383000000    -0.670000000     1.870000000
C    -0.022000000    -2.015000000     2.615000000
H     0.646000000    -2.485000000     3.331000000
C    -1.271000000    -2.660000000     2.450000000
C    -1.590000000    -3.873000000     3.267000000
O    -0.854000000    -4.336000000     4.160000000
O    -2.722000000    -4.360000000     3.194000000
