17
-95.98599
C    -1.268000000    -1.472000000     1.295000000
H    -2.176000000    -2.053000000     1.435000000
C    -1.130000000    -0.531000000     0.315000000
H    -1.977000000    -0.416000000    -0.358000000
C     0.074000000     0.164000000     0.186000000
C     0.300000000     1.182000000    -0.925000000
H    -0.429000000     0.949000000    -1.704000000
H     0.128000000     2.212000000    -0.606000000
H     1.286000000     1.102000000    -1.388000000
C     1.136000000    -0.131000000     1.019000000
H     2.134000000     0.273000000     0.868000000
C     1.045000000    -1.078000000     1.998000000
H     1.920000000    -1.282000000     2.611000000
C    -0.169000000    -1.797000000     2.117000000
C    -0.402000000    -2.641000000     3.354000000
O     0.433000000    -2.582000000     4.224000000
O    -1.325000000    -3.403000000     3.401000000
