17
-93.33506
C    -1.733000000    -2.109000000     1.363000000
H    -2.533000000    -2.836000000     1.251000000
C    -1.534000000    -1.048000000     0.494000000
H    -2.338000000    -0.913000000    -0.224000000
C    -0.379000000    -0.272000000     0.442000000
C    -0.096000000     0.798000000    -0.638000000
H    -1.051000000     1.270000000    -0.877000000
H     0.611000000     1.509000000    -0.207000000
H     0.331000000     0.374000000    -1.549000000
C     0.625000000    -0.606000000     1.308000000
H     1.529000000    -0.008000000     1.234000000
C     0.445000000    -1.678000000     2.225000000
H     1.237000000    -1.963000000     2.913000000
C    -0.703000000    -2.535000000     2.221000000
C    -0.876000000    -3.611000000     3.311000000
O     0.109000000    -4.072000000     3.844000000
O    -1.970000000    -4.159000000     3.455000000
