17
-94.50280
C    -1.091000000    -2.878000000     0.951000000
H    -1.964000000    -3.510000000     1.095000000
C    -1.147000000    -1.672000000     0.265000000
H    -2.012000000    -1.279000000    -0.263000000
C     0.028000000    -0.885000000     0.086000000
C    -0.052000000     0.391000000    -0.752000000
H    -0.870000000     0.412000000    -1.474000000
H    -0.084000000     1.275000000    -0.111000000
H     0.933000000     0.467000000    -1.218000000
C     1.227000000    -1.195000000     0.671000000
H     2.155000000    -0.653000000     0.509000000
C     1.265000000    -2.375000000     1.424000000
H     2.169000000    -2.514000000     2.011000000
C     0.091000000    -3.166000000     1.606000000
C     0.107000000    -4.320000000     2.595000000
O     1.019000000    -4.406000000     3.452000000
O    -0.769000000    -5.161000000     2.683000000
