17
-95.16971
C    -1.121000000    -2.075000000     0.851000000
H    -2.036000000    -2.650000000     0.735000000
C    -0.880000000    -0.953000000     0.083000000
H    -1.603000000    -0.634000000    -0.664000000
C     0.297000000    -0.288000000     0.148000000
C     0.578000000     0.827000000    -0.784000000
H     1.545000000     1.330000000    -0.709000000
H     0.671000000     0.464000000    -1.810000000
H    -0.211000000     1.582000000    -0.801000000
C     1.169000000    -0.511000000     1.266000000
H     2.000000000     0.183000000     1.366000000
C     0.873000000    -1.655000000     2.063000000
H     1.526000000    -1.853000000     2.909000000
C    -0.237000000    -2.435000000     1.876000000
C    -0.493000000    -3.662000000     2.717000000
O     0.058000000    -3.783000000     3.788000000
O    -1.343000000    -4.442000000     2.360000000
