17
-98.19986
C    -1.277000000    -1.343000000     1.370000000
H    -2.059000000    -2.097000000     1.416000000
C    -1.141000000    -0.571000000     0.188000000
H    -1.792000000    -0.746000000    -0.664000000
C    -0.063000000     0.255000000     0.060000000
C     0.072000000     1.063000000    -1.233000000
H     0.162000000     0.448000000    -2.130000000
H    -0.784000000     1.715000000    -1.421000000
H     0.919000000     1.750000000    -1.182000000
C     0.941000000     0.276000000     1.057000000
H     1.824000000     0.904000000     0.973000000
C     0.752000000    -0.431000000     2.204000000
H     1.499000000    -0.435000000     2.994000000
C    -0.398000000    -1.193000000     2.406000000
C    -0.527000000    -2.055000000     3.649000000
O     0.397000000    -2.146000000     4.443000000
O    -1.428000000    -2.877000000     3.661000000
