17
-97.98473
C    -1.541000000    -1.670000000     0.807000000
H    -2.559000000    -2.040000000     0.716000000
C    -1.182000000    -0.629000000    -0.088000000
H    -1.894000000    -0.265000000    -0.824000000
C     0.119000000    -0.049000000    -0.046000000
C     0.356000000     1.122000000    -0.923000000
H     0.446000000     0.790000000    -1.959000000
H    -0.397000000     1.907000000    -0.825000000
H     1.305000000     1.616000000    -0.704000000
C     1.040000000    -0.473000000     0.835000000
H     1.964000000     0.095000000     0.911000000
C     0.645000000    -1.506000000     1.741000000
H     1.300000000    -1.977000000     2.469000000
C    -0.620000000    -2.149000000     1.714000000
C    -1.107000000    -3.188000000     2.738000000
O    -0.304000000    -3.464000000     3.618000000
O    -2.279000000    -3.535000000     2.744000000
