17
-93.34342
C     1.896000000    -2.545000000     0.070000000
H     2.954000000    -2.795000000     0.054000000
C     1.546000000    -1.197000000     0.242000000
H     2.243000000    -0.366000000     0.306000000
C     0.223000000    -0.862000000     0.263000000
C    -0.201000000     0.605000000     0.420000000
H    -1.243000000     0.711000000     0.730000000
H     0.366000000     1.133000000     1.189000000
H    -0.098000000     1.271000000    -0.439000000
C    -0.782000000    -1.820000000     0.196000000
H    -1.851000000    -1.622000000     0.202000000
C    -0.413000000    -3.122000000     0.002000000
H    -1.299000000    -3.747000000    -0.078000000
C     0.885000000    -3.544000000    -0.003000000
C     1.347000000    -5.018000000    -0.248000000
O     0.487000000    -5.850000000    -0.424000000
O     2.525000000    -5.369000000    -0.355000000
