17
-96.18914
C    -0.531000000    -2.586000000     0.820000000
H    -1.354000000    -3.297000000     0.844000000
C    -0.685000000    -1.355000000     0.140000000
H    -1.616000000    -1.172000000    -0.390000000
C     0.478000000    -0.570000000     0.032000000
C     0.430000000     0.778000000    -0.707000000
H    -0.417000000     1.433000000    -0.492000000
H     1.362000000     1.331000000    -0.575000000
H     0.370000000     0.571000000    -1.777000000
C     1.662000000    -0.929000000     0.615000000
H     2.554000000    -0.354000000     0.379000000
C     1.713000000    -2.039000000     1.376000000
H     2.642000000    -2.313000000     1.870000000
C     0.592000000    -2.880000000     1.564000000
C     0.837000000    -4.182000000     2.318000000
O     1.785000000    -4.355000000     3.105000000
O    -0.055000000    -4.995000000     2.238000000
