17
-91.21647
C     0.524000000    -3.241000000     0.215000000
H    -0.080000000    -4.125000000     0.030000000
C     0.203000000    -2.063000000    -0.479000000
H    -0.512000000    -2.133000000    -1.295000000
C     0.757000000    -0.837000000    -0.115000000
C     0.292000000     0.516000000    -0.684000000
H    -0.787000000     0.526000000    -0.849000000
H     0.593000000     1.340000000    -0.034000000
H     0.693000000     0.798000000    -1.660000000
C     1.702000000    -0.834000000     0.912000000
H     2.072000000     0.153000000     1.177000000
C     1.969000000    -1.975000000     1.654000000
H     2.611000000    -1.834000000     2.520000000
C     1.287000000    -3.141000000     1.368000000
C     1.462000000    -4.289000000     2.314000000
O     2.458000000    -4.346000000     2.975000000
O     0.750000000    -5.261000000     2.216000000
