17
-83.15756
C     1.949000000    -2.371000000    -0.291000000
H     2.937000000    -2.585000000    -0.692000000
C     1.511000000    -0.996000000    -0.311000000
H     2.128000000    -0.229000000    -0.772000000
C     0.254000000    -0.682000000     0.154000000
C    -0.289000000     0.712000000     0.026000000
H    -0.992000000     0.752000000    -0.808000000
H    -0.776000000     0.967000000     0.969000000
H     0.512000000     1.432000000    -0.156000000
C    -0.518000000    -1.738000000     0.552000000
H    -1.571000000    -1.555000000     0.747000000
C    -0.174000000    -3.077000000     0.517000000
H    -0.882000000    -3.805000000     0.905000000
C     1.120000000    -3.386000000     0.151000000
C     1.513000000    -4.811000000     0.013000000
O     0.873000000    -5.725000000     0.377000000
O     2.560000000    -5.097000000    -0.502000000
