17
-91.17710
C    -0.116000000    -2.757000000     1.229000000
H    -1.023000000    -3.355000000     1.249000000
C    -0.305000000    -1.555000000     0.518000000
H    -1.265000000    -1.384000000     0.037000000
C     0.794000000    -0.691000000     0.305000000
C     0.507000000     0.735000000    -0.154000000
H     1.407000000     1.148000000    -0.613000000
H    -0.242000000     0.665000000    -0.945000000
H     0.120000000     1.390000000     0.629000000
C     2.058000000    -0.978000000     0.850000000
H     2.981000000    -0.406000000     0.789000000
C     2.218000000    -2.150000000     1.581000000
H     3.210000000    -2.413000000     1.938000000
C     1.116000000    -2.972000000     1.885000000
C     1.295000000    -4.178000000     2.779000000
O     2.362000000    -4.458000000     3.239000000
O     0.369000000    -4.941000000     2.973000000
