17
-95.08371
C    -1.901000000    -0.592000000     1.464000000
H    -2.947000000    -0.888000000     1.497000000
C    -1.351000000     0.035000000     0.423000000
H    -1.913000000     0.367000000    -0.446000000
C     0.094000000     0.275000000     0.373000000
C     0.712000000     1.049000000    -0.690000000
H     0.450000000     0.586000000    -1.643000000
H     0.360000000     2.082000000    -0.726000000
H     1.795000000     0.995000000    -0.563000000
C     0.871000000    -0.292000000     1.357000000
H     1.954000000    -0.236000000     1.290000000
C     0.273000000    -0.969000000     2.437000000
H     0.852000000    -1.392000000     3.255000000
C    -1.136000000    -1.163000000     2.539000000
C    -1.700000000    -1.927000000     3.625000000
O    -0.989000000    -2.595000000     4.410000000
O    -2.919000000    -1.929000000     3.793000000
