17
-93.32566
C    -1.422000000    -1.146000000     2.080000000
H    -2.446000000    -1.326000000     2.398000000
C    -1.344000000    -0.364000000     0.915000000
H    -2.271000000    -0.029000000     0.456000000
C    -0.048000000     0.022000000     0.492000000
C     0.112000000     1.012000000    -0.632000000
H     0.312000000     2.045000000    -0.339000000
H     0.888000000     0.732000000    -1.347000000
H    -0.753000000     1.116000000    -1.290000000
C     1.065000000    -0.481000000     1.076000000
H     2.057000000    -0.276000000     0.681000000
C     0.970000000    -1.273000000     2.210000000
H     1.955000000    -1.534000000     2.588000000
C    -0.302000000    -1.571000000     2.767000000
C    -0.348000000    -2.364000000     4.031000000
O     0.642000000    -2.459000000     4.724000000
O    -1.388000000    -2.837000000     4.374000000
