17
-96.26001
C    -1.494000000    -1.739000000     2.222000000
H    -2.529000000    -1.975000000     2.454000000
C    -1.221000000    -0.991000000     1.090000000
H    -1.988000000    -0.553000000     0.455000000
C     0.092000000    -0.768000000     0.786000000
C     0.427000000     0.127000000    -0.385000000
H     0.083000000    -0.326000000    -1.316000000
H    -0.231000000     0.996000000    -0.312000000
H     1.459000000     0.485000000    -0.352000000
C     1.108000000    -1.308000000     1.538000000
H     2.086000000    -1.043000000     1.146000000
C     0.857000000    -1.963000000     2.672000000
H     1.651000000    -2.301000000     3.332000000
C    -0.498000000    -2.221000000     2.986000000
C    -0.775000000    -3.100000000     4.182000000
O     0.133000000    -3.329000000     4.990000000
O    -1.902000000    -3.527000000     4.326000000
