17
-89.98755
C    -1.219000000    -2.013000000     2.283000000
H    -2.135000000    -2.510000000     2.593000000
C    -1.157000000    -1.072000000     1.274000000
H    -2.030000000    -0.749000000     0.713000000
C    -0.033000000    -0.435000000     0.851000000
C     0.044000000     0.510000000    -0.289000000
H    -0.242000000     0.039000000    -1.232000000
H    -0.584000000     1.387000000    -0.121000000
H     1.067000000     0.883000000    -0.361000000
C     1.120000000    -0.709000000     1.558000000
H     2.082000000    -0.231000000     1.392000000
C     1.133000000    -1.660000000     2.610000000
H     2.099000000    -1.769000000     3.096000000
C    -0.022000000    -2.294000000     3.019000000
C    -0.012000000    -3.304000000     4.134000000
O     1.035000000    -3.768000000     4.509000000
O    -1.017000000    -3.430000000     4.715000000
