17
-95.21555
C    -1.176000000    -1.682000000     1.457000000
H    -2.080000000    -2.145000000     1.844000000
C    -1.188000000    -0.515000000     0.730000000
H    -2.176000000    -0.092000000     0.570000000
C     0.038000000    -0.012000000     0.153000000
C     0.001000000     1.251000000    -0.669000000
H     0.833000000     1.907000000    -0.404000000
H     0.256000000     1.007000000    -1.703000000
H    -1.004000000     1.676000000    -0.647000000
C     1.268000000    -0.668000000     0.419000000
H     2.220000000    -0.185000000     0.214000000
C     1.210000000    -1.762000000     1.248000000
H     2.187000000    -2.188000000     1.458000000
C     0.031000000    -2.419000000     1.617000000
C     0.026000000    -3.715000000     2.413000000
O     0.999000000    -4.446000000     2.288000000
O    -1.016000000    -4.098000000     2.923000000
