17
-94.38051
C    -1.316000000    -1.682000000     1.692000000
H    -2.312000000    -2.046000000     1.930000000
C    -1.105000000    -0.625000000     0.813000000
H    -1.931000000     0.030000000     0.548000000
C     0.175000000    -0.329000000     0.456000000
C     0.403000000     0.953000000    -0.366000000
H    -0.194000000     1.797000000    -0.015000000
H     1.437000000     1.270000000    -0.216000000
H     0.276000000     0.654000000    -1.409000000
C     1.271000000    -1.004000000     1.038000000
H     2.299000000    -0.765000000     0.777000000
C     1.046000000    -2.107000000     1.751000000
H     1.939000000    -2.560000000     2.174000000
C    -0.297000000    -2.515000000     2.100000000
C    -0.506000000    -3.762000000     2.972000000
O     0.402000000    -4.564000000     3.062000000
O    -1.591000000    -3.953000000     3.522000000
