17
-94.58944
C    -1.041000000    -1.962000000     1.719000000
H    -2.003000000    -2.357000000     2.036000000
C    -1.075000000    -0.822000000     0.936000000
H    -1.963000000    -0.312000000     0.571000000
C     0.091000000    -0.177000000     0.552000000
C     0.040000000     1.152000000    -0.189000000
H    -0.937000000     1.186000000    -0.675000000
H     0.076000000     2.009000000     0.487000000
H     0.762000000     1.180000000    -1.008000000
C     1.277000000    -0.740000000     0.904000000
H     2.180000000    -0.343000000     0.448000000
C     1.354000000    -1.876000000     1.713000000
H     2.296000000    -2.353000000     1.973000000
C     0.197000000    -2.548000000     2.095000000
C     0.211000000    -3.730000000     3.010000000
O     1.232000000    -4.171000000     3.518000000
O    -0.801000000    -4.415000000     3.147000000
