17
-92.90225
C    -1.045000000    -1.694000000     2.095000000
H    -1.995000000    -1.927000000     2.570000000
C    -0.998000000    -0.611000000     1.214000000
H    -1.895000000    -0.013000000     1.076000000
C     0.210000000    -0.278000000     0.640000000
C     0.304000000     0.936000000    -0.185000000
H    -0.615000000     1.500000000    -0.010000000
H     1.197000000     1.514000000     0.061000000
H     0.323000000     0.712000000    -1.253000000
C     1.297000000    -1.130000000     0.810000000
H     2.233000000    -0.903000000     0.305000000
C     1.130000000    -2.266000000     1.586000000
H     2.025000000    -2.866000000     1.731000000
C    -0.016000000    -2.572000000     2.321000000
C    -0.180000000    -3.868000000     3.087000000
O     0.760000000    -4.659000000     3.177000000
O    -1.220000000    -4.262000000     3.545000000
