17
-88.58728
C    -2.128000000    -1.887000000     0.869000000
H    -2.953000000    -2.360000000     0.343000000
C    -1.638000000    -0.705000000     0.265000000
H    -2.217000000    -0.210000000    -0.511000000
C    -0.442000000    -0.203000000     0.682000000
C     0.151000000     1.045000000    -0.004000000
H    -0.259000000     2.012000000     0.295000000
H     1.239000000     0.983000000    -0.071000000
H    -0.176000000     0.979000000    -1.044000000
C     0.322000000    -0.909000000     1.611000000
H     1.320000000    -0.588000000     1.897000000
C    -0.219000000    -2.026000000     2.294000000
H     0.313000000    -2.511000000     3.108000000
C    -1.447000000    -2.490000000     1.887000000
C    -1.967000000    -3.790000000     2.497000000
O    -1.322000000    -4.353000000     3.382000000
O    -3.072000000    -4.061000000     2.278000000
