17
-92.34223
C    -0.966000000    -2.530000000     0.237000000
H    -1.704000000    -3.234000000    -0.138000000
C    -1.063000000    -1.199000000    -0.182000000
H    -1.765000000    -0.826000000    -0.923000000
C    -0.119000000    -0.319000000     0.303000000
C     0.037000000     1.099000000    -0.236000000
H    -0.863000000     1.575000000     0.159000000
H     0.966000000     1.540000000     0.129000000
H    -0.019000000     1.166000000    -1.325000000
C     0.860000000    -0.752000000     1.183000000
H     1.641000000    -0.055000000     1.477000000
C     0.858000000    -2.056000000     1.668000000
H     1.550000000    -2.356000000     2.451000000
C    -0.032000000    -2.978000000     1.142000000
C    -0.039000000    -4.352000000     1.609000000
O     0.945000000    -4.654000000     2.258000000
O    -0.803000000    -5.194000000     1.223000000
