17
-102.03062
C    -1.620000000    -2.447000000     0.565000000
H    -2.501000000    -3.021000000     0.290000000
C    -1.293000000    -1.348000000    -0.251000000
H    -1.966000000    -1.019000000    -1.039000000
C    -0.108000000    -0.678000000    -0.036000000
C     0.227000000     0.597000000    -0.818000000
H    -0.630000000     1.273000000    -0.790000000
H     1.072000000     1.157000000    -0.412000000
H     0.580000000     0.323000000    -1.815000000
C     0.756000000    -1.113000000     0.934000000
H     1.681000000    -0.563000000     1.088000000
C     0.454000000    -2.249000000     1.708000000
H     1.109000000    -2.564000000     2.517000000
C    -0.716000000    -2.970000000     1.501000000
C    -1.048000000    -4.221000000     2.248000000
O    -0.185000000    -4.718000000     2.969000000
O    -2.127000000    -4.802000000     2.065000000
