17
-90.50545
C     1.886000000    -1.523000000    -0.942000000
H     2.815000000    -1.525000000    -1.507000000
C     1.286000000    -0.335000000    -0.445000000
H     1.642000000     0.617000000    -0.831000000
C     0.136000000    -0.361000000     0.256000000
C    -0.490000000     0.960000000     0.827000000
H    -1.544000000     0.712000000     0.969000000
H    -0.117000000     1.241000000     1.814000000
H    -0.390000000     1.787000000     0.121000000
C    -0.549000000    -1.544000000     0.437000000
H    -1.468000000    -1.590000000     1.016000000
C     0.009000000    -2.738000000    -0.019000000
H    -0.474000000    -3.690000000     0.187000000
C     1.202000000    -2.726000000    -0.714000000
C     1.872000000    -4.040000000    -1.064000000
O     1.366000000    -5.057000000    -0.748000000
O     2.864000000    -3.998000000    -1.721000000
