17
-70.79186
C    -0.828000000    -2.379000000     0.190000000
H    -1.670000000    -3.036000000    -0.010000000
C    -1.001000000    -0.999000000    -0.135000000
H    -1.931000000    -0.618000000    -0.551000000
C     0.023000000    -0.091000000     0.218000000
C    -0.226000000     1.369000000    -0.074000000
H     0.377000000     2.183000000     0.332000000
H    -0.229000000     1.510000000    -1.157000000
H    -1.235000000     1.465000000     0.334000000
C     1.211000000    -0.542000000     0.722000000
H     1.950000000     0.245000000     0.847000000
C     1.424000000    -1.878000000     1.051000000
H     2.414000000    -2.146000000     1.413000000
C     0.361000000    -2.826000000     0.843000000
C     0.555000000    -4.190000000     1.196000000
O     1.550000000    -4.564000000     1.775000000
O     0.013000000    -5.016000000     0.581000000
