17
-95.07646
C    -1.256000000    -1.783000000    -0.969000000
H    -2.198000000    -2.152000000    -1.365000000
C    -1.155000000    -0.395000000    -0.665000000
H    -2.054000000     0.216000000    -0.667000000
C     0.095000000     0.160000000    -0.402000000
C     0.160000000     1.667000000    -0.104000000
H     0.147000000     1.908000000     0.961000000
H     0.966000000     2.223000000    -0.587000000
H    -0.767000000     2.043000000    -0.542000000
C     1.220000000    -0.681000000    -0.261000000
H     2.140000000    -0.198000000     0.058000000
C     1.075000000    -2.066000000    -0.421000000
H     1.953000000    -2.697000000    -0.310000000
C    -0.190000000    -2.611000000    -0.801000000
C    -0.190000000    -4.061000000    -1.145000000
O     0.544000000    -4.829000000    -0.501000000
O    -1.042000000    -4.495000000    -1.850000000
