17
-96.34314
C    -0.907000000    -2.668000000    -0.233000000
H    -1.432000000    -3.327000000    -0.920000000
C    -0.993000000    -1.316000000    -0.456000000
H    -1.645000000    -0.868000000    -1.200000000
C    -0.193000000    -0.384000000     0.243000000
C    -0.160000000     1.067000000    -0.172000000
H    -1.202000000     1.392000000    -0.197000000
H     0.447000000     1.701000000     0.478000000
H     0.303000000     1.252000000    -1.144000000
C     0.655000000    -0.859000000     1.238000000
H     1.283000000    -0.105000000     1.704000000
C     0.789000000    -2.238000000     1.424000000
H     1.370000000    -2.649000000     2.246000000
C     0.043000000    -3.161000000     0.722000000
C     0.142000000    -4.646000000     0.831000000
O     0.458000000    -5.172000000     1.922000000
O    -0.125000000    -5.374000000    -0.089000000
