17
-89.79389
C    -1.166000000    -2.135000000     0.649000000
H    -2.027000000    -2.798000000     0.628000000
C    -1.221000000    -0.752000000     0.238000000
H    -2.118000000    -0.250000000    -0.118000000
C    -0.029000000    -0.066000000     0.226000000
C    -0.004000000     1.400000000    -0.334000000
H     0.842000000     1.524000000    -1.012000000
H    -0.936000000     1.753000000    -0.780000000
H     0.182000000     2.143000000     0.445000000
C     1.127000000    -0.683000000     0.650000000
H     2.039000000    -0.094000000     0.594000000
C     1.190000000    -1.935000000     1.147000000
H     2.091000000    -2.373000000     1.567000000
C     0.026000000    -2.721000000     1.072000000
C     0.050000000    -4.174000000     1.518000000
O     1.060000000    -4.732000000     1.995000000
O    -0.860000000    -4.853000000     1.225000000
