17
-100.32198
C    -0.909000000    -2.239000000     0.577000000
H    -1.808000000    -2.850000000     0.561000000
C    -1.065000000    -0.927000000     0.082000000
H    -2.001000000    -0.549000000    -0.321000000
C     0.006000000    -0.050000000     0.055000000
C    -0.008000000     1.320000000    -0.525000000
H     0.867000000     1.432000000    -1.169000000
H    -0.948000000     1.494000000    -1.053000000
H     0.024000000     2.030000000     0.304000000
C     1.230000000    -0.579000000     0.538000000
H     2.118000000     0.046000000     0.495000000
C     1.369000000    -1.878000000     1.017000000
H     2.276000000    -2.305000000     1.438000000
C     0.270000000    -2.707000000     1.112000000
C     0.388000000    -4.170000000     1.508000000
O     1.377000000    -4.470000000     2.198000000
O    -0.372000000    -4.952000000     1.020000000
