17
-97.67096
C     2.181000000    -0.584000000     1.564000000
H     3.186000000    -0.970000000     1.414000000
C     1.440000000    -0.236000000     0.414000000
H     1.913000000    -0.399000000    -0.551000000
C     0.125000000     0.090000000     0.489000000
C    -0.735000000     0.247000000    -0.736000000
H    -0.025000000     0.619000000    -1.478000000
H    -1.051000000    -0.744000000    -1.068000000
H    -1.649000000     0.827000000    -0.597000000
C    -0.449000000     0.212000000     1.738000000
H    -1.492000000     0.518000000     1.755000000
C     0.279000000    -0.011000000     2.899000000
H    -0.250000000     0.018000000     3.848000000
C     1.594000000    -0.397000000     2.804000000
C     2.359000000    -0.757000000     4.046000000
O     1.805000000    -0.709000000     5.104000000
O     3.554000000    -0.986000000     3.887000000
