17
-91.09398
C    -0.160000000    -2.596000000    -1.519000000
H    -0.875000000    -3.128000000    -2.142000000
C    -0.325000000    -1.294000000    -1.136000000
H    -1.222000000    -0.844000000    -1.553000000
C     0.553000000    -0.681000000    -0.281000000
C     0.189000000     0.739000000     0.142000000
H     0.011000000     0.778000000     1.219000000
H     0.998000000     1.458000000    -0.004000000
H    -0.715000000     1.027000000    -0.400000000
C     1.569000000    -1.427000000     0.264000000
H     2.154000000    -0.882000000     1.000000000
C     1.752000000    -2.810000000    -0.073000000
H     2.479000000    -3.438000000     0.434000000
C     0.949000000    -3.360000000    -1.029000000
C     1.047000000    -4.804000000    -1.331000000
O     1.804000000    -5.484000000    -0.674000000
O     0.158000000    -5.338000000    -1.961000000
