17
-99.08262
C    -1.643000000    -2.240000000    -1.965000000
H    -2.628000000    -2.405000000    -2.395000000
C    -1.389000000    -1.060000000    -1.351000000
H    -2.089000000    -0.233000000    -1.438000000
C    -0.167000000    -0.801000000    -0.828000000
C     0.194000000     0.581000000    -0.206000000
H    -0.654000000     1.193000000     0.110000000
H     0.856000000     0.412000000     0.646000000
H     0.751000000     1.169000000    -0.938000000
C     0.825000000    -1.784000000    -0.855000000
H     1.851000000    -1.560000000    -0.575000000
C     0.537000000    -3.010000000    -1.479000000
H     1.314000000    -3.764000000    -1.380000000
C    -0.705000000    -3.257000000    -2.034000000
C    -1.066000000    -4.515000000    -2.787000000
O    -0.150000000    -5.313000000    -3.030000000
O    -2.274000000    -4.793000000    -2.906000000
