17
-93.25879
C    -1.250000000    -1.868000000    -0.865000000
H    -2.142000000    -2.420000000    -1.151000000
C    -1.151000000    -0.528000000    -0.787000000
H    -1.970000000     0.117000000    -1.096000000
C     0.015000000     0.028000000    -0.278000000
C     0.130000000     1.569000000    -0.208000000
H     0.288000000     1.933000000    -1.225000000
H    -0.736000000     2.039000000     0.263000000
H     0.973000000     1.908000000     0.399000000
C     1.053000000    -0.719000000     0.080000000
H     1.947000000    -0.300000000     0.534000000
C     0.951000000    -2.118000000    -0.056000000
H     1.803000000    -2.781000000     0.069000000
C    -0.198000000    -2.713000000    -0.501000000
C    -0.416000000    -4.156000000    -0.738000000
O     0.364000000    -4.995000000    -0.346000000
O    -1.414000000    -4.492000000    -1.339000000
