17
-86.94242
C    -1.720000000    -2.325000000    -0.511000000
H    -2.717000000    -2.557000000    -0.146000000
C    -1.341000000    -1.004000000    -0.221000000
H    -2.134000000    -0.414000000     0.232000000
C    -0.051000000    -0.580000000    -0.322000000
C     0.184000000     0.801000000     0.173000000
H     1.218000000     0.942000000     0.495000000
H    -0.016000000     1.527000000    -0.617000000
H    -0.451000000     1.212000000     0.961000000
C     0.883000000    -1.452000000    -0.821000000
H     1.908000000    -1.094000000    -0.873000000
C     0.545000000    -2.744000000    -1.222000000
H     1.228000000    -3.491000000    -1.618000000
C    -0.794000000    -3.211000000    -1.092000000
C    -1.244000000    -4.569000000    -1.507000000
O    -0.447000000    -5.448000000    -1.697000000
O    -2.387000000    -4.829000000    -1.267000000
