17
-99.88155
C     2.191000000    -0.758000000    -1.347000000
H     3.091000000    -0.583000000    -1.931000000
C     1.454000000     0.296000000    -0.812000000
H     1.596000000     1.316000000    -1.160000000
C     0.432000000    -0.025000000     0.068000000
C    -0.428000000     1.042000000     0.671000000
H     0.108000000     1.976000000     0.488000000
H    -1.365000000     1.053000000     0.112000000
H    -0.667000000     0.925000000     1.730000000
C     0.114000000    -1.352000000     0.327000000
H    -0.675000000    -1.568000000     1.043000000
C     0.889000000    -2.377000000    -0.195000000
H     0.621000000    -3.402000000     0.048000000
C     1.902000000    -2.082000000    -1.093000000
C     2.611000000    -3.213000000    -1.815000000
O     2.360000000    -4.373000000    -1.508000000
O     3.465000000    -3.019000000    -2.681000000
