17
-93.48614
C    -1.677000000    -2.186000000    -0.559000000
H    -2.509000000    -2.742000000    -0.984000000
C    -1.586000000    -0.761000000    -0.640000000
H    -2.357000000    -0.155000000    -1.108000000
C    -0.449000000    -0.183000000    -0.236000000
C    -0.258000000     1.273000000    -0.441000000
H    -0.022000000     1.462000000    -1.491000000
H    -1.006000000     1.942000000    -0.012000000
H     0.693000000     1.521000000     0.035000000
C     0.521000000    -0.982000000     0.475000000
H     1.417000000    -0.545000000     0.909000000
C     0.310000000    -2.304000000     0.721000000
H     0.965000000    -2.880000000     1.370000000
C    -0.718000000    -2.956000000     0.107000000
C    -0.821000000    -4.451000000     0.255000000
O     0.020000000    -5.104000000     0.840000000
O    -1.746000000    -5.004000000    -0.309000000
