17
-92.98358
C    -1.282000000    -2.119000000    -0.143000000
H    -2.196000000    -2.638000000    -0.420000000
C    -1.283000000    -0.644000000    -0.082000000
H    -2.117000000    -0.004000000    -0.356000000
C    -0.033000000     0.005000000     0.055000000
C     0.143000000     1.532000000     0.053000000
H     1.025000000     1.753000000    -0.552000000
H    -0.652000000     1.996000000    -0.533000000
H     0.192000000     1.850000000     1.097000000
C     1.129000000    -0.704000000     0.339000000
H     2.061000000    -0.176000000     0.520000000
C     1.103000000    -2.083000000     0.406000000
H     2.027000000    -2.643000000     0.527000000
C    -0.115000000    -2.842000000     0.161000000
C    -0.003000000    -4.327000000     0.204000000
O     0.879000000    -4.988000000     0.795000000
O    -0.981000000    -4.946000000    -0.245000000
