17
-83.30258
C    -1.675000000    -1.724000000    -1.039000000
H    -2.721000000    -1.973000000    -1.198000000
C    -1.268000000    -0.418000000    -0.843000000
H    -1.984000000     0.393000000    -0.749000000
C     0.042000000    -0.114000000    -0.727000000
C     0.328000000     1.362000000    -0.292000000
H     0.158000000     1.454000000     0.783000000
H     1.346000000     1.681000000    -0.524000000
H    -0.406000000     2.057000000    -0.704000000
C     1.007000000    -1.096000000    -0.833000000
H     2.059000000    -0.894000000    -0.645000000
C     0.625000000    -2.402000000    -1.055000000
H     1.379000000    -3.134000000    -1.331000000
C    -0.745000000    -2.750000000    -1.236000000
C    -1.166000000    -4.184000000    -1.591000000
O    -0.387000000    -5.038000000    -1.577000000
O    -2.345000000    -4.524000000    -1.647000000
