17
-93.81157
C    -1.250000000    -2.185000000    -0.411000000
H    -2.170000000    -2.628000000    -0.784000000
C    -1.152000000    -0.772000000    -0.568000000
H    -1.930000000    -0.185000000    -1.049000000
C    -0.052000000    -0.123000000     0.013000000
C     0.157000000     1.378000000    -0.299000000
H     0.753000000     1.536000000    -1.200000000
H    -0.772000000     1.952000000    -0.317000000
H     0.704000000     1.727000000     0.579000000
C     0.882000000    -0.845000000     0.713000000
H     1.760000000    -0.321000000     1.082000000
C     0.879000000    -2.224000000     0.662000000
H     1.653000000    -2.803000000     1.159000000
C    -0.197000000    -2.956000000     0.155000000
C    -0.218000000    -4.444000000     0.178000000
O     0.753000000    -5.087000000     0.527000000
O    -1.272000000    -5.010000000     0.008000000
