17
-90.91559
C    -1.781000000    -2.353000000     0.695000000
H    -2.683000000    -2.788000000     0.272000000
C    -1.312000000    -1.176000000     0.150000000
H    -1.916000000    -0.695000000    -0.616000000
C    -0.080000000    -0.605000000     0.421000000
C     0.253000000     0.631000000    -0.288000000
H     1.015000000     1.164000000     0.284000000
H     0.543000000     0.437000000    -1.323000000
H    -0.596000000     1.315000000    -0.340000000
C     0.800000000    -1.247000000     1.276000000
H     1.818000000    -0.880000000     1.179000000
C     0.382000000    -2.395000000     1.949000000
H     1.123000000    -2.851000000     2.601000000
C    -0.932000000    -2.944000000     1.628000000
C    -1.430000000    -4.277000000     2.288000000
O    -0.587000000    -4.946000000     2.823000000
O    -2.578000000    -4.689000000     2.187000000
