17
-82.12373
C    -0.043000000    -2.682000000    -1.223000000
H    -0.733000000    -3.441000000    -1.585000000
C    -0.577000000    -1.418000000    -0.748000000
H    -1.619000000    -1.173000000    -0.938000000
C     0.316000000    -0.513000000    -0.157000000
C    -0.148000000     0.891000000    -0.086000000
H    -0.566000000     1.340000000    -0.990000000
H    -0.822000000     0.996000000     0.766000000
H     0.732000000     1.520000000     0.070000000
C     1.601000000    -0.915000000     0.195000000
H     2.266000000    -0.147000000     0.584000000
C     2.150000000    -2.150000000    -0.253000000
H     3.221000000    -2.323000000    -0.174000000
C     1.254000000    -3.053000000    -0.887000000
C     1.737000000    -4.518000000    -1.021000000
O     2.735000000    -4.802000000    -0.423000000
O     0.867000000    -5.397000000    -1.141000000
