17
-88.87088
C    -1.387000000    -2.075000000     0.293000000
H    -2.348000000    -2.580000000     0.231000000
C    -1.292000000    -0.716000000     0.104000000
H    -2.063000000    -0.085000000    -0.331000000
C    -0.115000000    -0.030000000     0.400000000
C     0.017000000     1.487000000     0.094000000
H     0.239000000     1.953000000     1.057000000
H     0.827000000     1.751000000    -0.590000000
H    -0.923000000     1.877000000    -0.299000000
C     1.029000000    -0.794000000     0.609000000
H     2.037000000    -0.400000000     0.710000000
C     0.976000000    -2.163000000     0.754000000
H     1.918000000    -2.705000000     0.785000000
C    -0.258000000    -2.810000000     0.786000000
C    -0.397000000    -4.393000000     0.987000000
O     0.549000000    -5.108000000     0.838000000
O    -1.493000000    -4.870000000     1.125000000
