17
-84.08485
C    -0.848000000    -2.483000000     0.677000000
H    -1.755000000    -3.062000000     0.834000000
C    -0.949000000    -1.017000000     0.631000000
H    -1.946000000    -0.599000000     0.748000000
C     0.070000000    -0.191000000     0.413000000
C    -0.176000000     1.217000000     0.161000000
H    -1.186000000     1.359000000    -0.228000000
H    -0.061000000     1.907000000     1.000000000
H     0.552000000     1.563000000    -0.576000000
C     1.324000000    -0.816000000     0.333000000
H     2.177000000    -0.163000000     0.169000000
C     1.470000000    -2.229000000     0.226000000
H     2.446000000    -2.642000000    -0.018000000
C     0.400000000    -3.092000000     0.554000000
C     0.638000000    -4.543000000     0.678000000
O     1.568000000    -5.058000000     0.025000000
O    -0.284000000    -5.224000000     1.018000000
