17
-89.98050
C    -1.453000000    -2.338000000     0.319000000
H    -2.297000000    -2.924000000    -0.034000000
C    -1.258000000    -1.068000000    -0.104000000
H    -1.836000000    -0.713000000    -0.954000000
C    -0.341000000    -0.239000000     0.501000000
C    -0.210000000     1.146000000    -0.114000000
H    -0.023000000     1.070000000    -1.188000000
H    -1.192000000     1.604000000     0.020000000
H     0.584000000     1.741000000     0.341000000
C     0.514000000    -0.728000000     1.499000000
H     1.332000000    -0.151000000     1.922000000
C     0.234000000    -1.987000000     1.992000000
H     0.924000000    -2.402000000     2.723000000
C    -0.722000000    -2.849000000     1.436000000
C    -0.888000000    -4.169000000     2.058000000
O    -0.167000000    -4.570000000     2.955000000
O    -1.682000000    -4.951000000     1.625000000
