17
-101.26502
C    -0.841000000    -2.777000000     0.496000000
H    -1.639000000    -3.509000000     0.399000000
C    -1.067000000    -1.453000000     0.040000000
H    -1.977000000    -1.204000000    -0.499000000
C    -0.095000000    -0.512000000     0.297000000
C    -0.210000000     0.933000000    -0.078000000
H    -0.846000000     1.069000000    -0.955000000
H    -0.625000000     1.442000000     0.795000000
H     0.742000000     1.404000000    -0.331000000
C     1.142000000    -0.914000000     0.886000000
H     1.983000000    -0.234000000     0.992000000
C     1.340000000    -2.207000000     1.356000000
H     2.237000000    -2.465000000     1.913000000
C     0.330000000    -3.160000000     1.142000000
C     0.427000000    -4.636000000     1.626000000
O     1.534000000    -5.092000000     1.963000000
O    -0.516000000    -5.415000000     1.587000000
