17
-95.81895
C    -1.075000000    -2.722000000    -0.491000000
H    -1.591000000    -3.211000000    -1.313000000
C    -0.919000000    -1.357000000    -0.726000000
H    -1.449000000    -0.950000000    -1.584000000
C    -0.158000000    -0.575000000     0.089000000
C    -0.010000000     0.885000000     0.075000000
H    -0.285000000     1.259000000     1.064000000
H     0.985000000     1.255000000    -0.178000000
H    -0.828000000     1.285000000    -0.529000000
C     0.543000000    -1.167000000     1.137000000
H     1.188000000    -0.525000000     1.731000000
C     0.498000000    -2.534000000     1.316000000
H     1.178000000    -2.997000000     2.026000000
C    -0.349000000    -3.312000000     0.571000000
C    -0.375000000    -4.880000000     0.750000000
O     0.321000000    -5.382000000     1.640000000
O    -1.114000000    -5.564000000     0.038000000
