17
-93.04679
C    -0.870000000    -2.573000000     0.188000000
H    -1.597000000    -3.298000000    -0.168000000
C    -1.052000000    -1.222000000    -0.250000000
H    -1.764000000    -0.950000000    -1.025000000
C    -0.120000000    -0.195000000     0.167000000
C    -0.273000000     1.262000000    -0.264000000
H     0.561000000     1.348000000    -0.962000000
H    -1.172000000     1.496000000    -0.838000000
H    -0.087000000     1.911000000     0.595000000
C     0.874000000    -0.515000000     1.028000000
H     1.591000000     0.220000000     1.384000000
C     0.984000000    -1.809000000     1.554000000
H     1.661000000    -2.016000000     2.379000000
C     0.107000000    -2.854000000     1.205000000
C     0.291000000    -4.220000000     1.787000000
O     1.381000000    -4.456000000     2.249000000
O    -0.517000000    -5.095000000     1.523000000
