17
-87.73280
C    -0.868000000    -2.785000000     0.825000000
H    -1.689000000    -3.458000000     0.592000000
C    -0.923000000    -1.480000000     0.266000000
H    -1.776000000    -1.250000000    -0.368000000
C     0.043000000    -0.529000000     0.519000000
C    -0.028000000     0.837000000    -0.107000000
H     0.899000000     1.291000000    -0.463000000
H    -0.771000000     0.910000000    -0.903000000
H    -0.355000000     1.567000000     0.636000000
C     1.117000000    -0.899000000     1.351000000
H     1.914000000    -0.190000000     1.563000000
C     1.226000000    -2.226000000     1.880000000
H     2.110000000    -2.480000000     2.460000000
C     0.218000000    -3.101000000     1.653000000
C     0.198000000    -4.416000000     2.335000000
O     1.206000000    -4.748000000     2.953000000
O    -0.539000000    -5.289000000     2.043000000
