17
-96.29647
C    -0.846000000    -2.692000000    -0.645000000
H    -1.306000000    -3.295000000    -1.424000000
C    -1.094000000    -1.346000000    -0.669000000
H    -1.840000000    -0.965000000    -1.361000000
C    -0.448000000    -0.474000000     0.138000000
C    -0.545000000     1.039000000    -0.067000000
H    -1.044000000     1.514000000     0.780000000
H     0.409000000     1.550000000    -0.216000000
H    -1.134000000     1.285000000    -0.953000000
C     0.648000000    -0.990000000     0.854000000
H     1.273000000    -0.239000000     1.331000000
C     0.849000000    -2.362000000     0.929000000
H     1.634000000    -2.684000000     1.609000000
C     0.067000000    -3.270000000     0.243000000
C     0.222000000    -4.798000000     0.389000000
O     1.105000000    -5.173000000     1.125000000
O    -0.480000000    -5.592000000    -0.283000000
