17
-95.23017
C    -1.111000000    -1.778000000    -1.201000000
H    -1.680000000    -1.937000000    -2.114000000
C    -0.813000000    -0.473000000    -0.866000000
H    -1.253000000     0.287000000    -1.506000000
C    -0.059000000    -0.139000000     0.261000000
C     0.010000000     1.246000000     0.786000000
H    -0.961000000     1.602000000     1.137000000
H     0.662000000     1.184000000     1.660000000
H     0.470000000     1.982000000     0.123000000
C     0.392000000    -1.213000000     1.066000000
H     1.094000000    -1.061000000     1.882000000
C     0.119000000    -2.510000000     0.708000000
H     0.577000000    -3.332000000     1.252000000
C    -0.656000000    -2.806000000    -0.424000000
C    -0.927000000    -4.271000000    -0.684000000
O    -0.696000000    -5.141000000     0.119000000
O    -1.283000000    -4.640000000    -1.809000000
