17
-91.55064
C    -0.044000000    -2.228000000    -1.813000000
H    -0.695000000    -2.661000000    -2.568000000
C    -0.223000000    -0.953000000    -1.251000000
H    -1.009000000    -0.334000000    -1.676000000
C     0.560000000    -0.446000000    -0.181000000
C     0.251000000     0.852000000     0.415000000
H     0.422000000     1.716000000    -0.231000000
H    -0.792000000     0.840000000     0.739000000
H     0.824000000     1.048000000     1.324000000
C     1.571000000    -1.301000000     0.318000000
H     2.223000000    -0.991000000     1.131000000
C     1.730000000    -2.586000000    -0.207000000
H     2.625000000    -3.136000000     0.073000000
C     0.964000000    -3.002000000    -1.286000000
C     1.243000000    -4.416000000    -1.762000000
O     2.230000000    -4.991000000    -1.460000000
O     0.425000000    -4.915000000    -2.451000000
