17
-95.16547
C     0.155000000    -1.936000000    -1.568000000
H    -0.198000000    -2.388000000    -2.491000000
C    -0.179000000    -0.666000000    -1.174000000
H    -0.785000000    -0.091000000    -1.869000000
C     0.367000000    -0.112000000    -0.023000000
C    -0.070000000     1.289000000     0.458000000
H    -0.973000000     1.143000000     1.054000000
H     0.651000000     1.707000000     1.163000000
H    -0.185000000     2.054000000    -0.313000000
C     1.266000000    -0.825000000     0.733000000
H     1.668000000    -0.379000000     1.640000000
C     1.618000000    -2.092000000     0.346000000
H     2.396000000    -2.662000000     0.848000000
C     1.001000000    -2.670000000    -0.776000000
C     1.331000000    -4.059000000    -1.152000000
O     2.334000000    -4.641000000    -0.778000000
O     0.685000000    -4.566000000    -2.054000000
