17
-96.54870
C    -0.929000000    -3.004000000    -1.302000000
H    -1.335000000    -3.387000000    -2.234000000
C    -0.845000000    -1.605000000    -1.136000000
H    -1.356000000    -0.928000000    -1.816000000
C    -0.190000000    -1.038000000    -0.086000000
C    -0.260000000     0.471000000     0.126000000
H    -0.984000000     0.805000000    -0.620000000
H    -0.637000000     0.761000000     1.108000000
H     0.750000000     0.838000000    -0.070000000
C     0.522000000    -1.833000000     0.804000000
H     1.050000000    -1.428000000     1.664000000
C     0.562000000    -3.245000000     0.558000000
H     0.971000000    -3.844000000     1.368000000
C    -0.198000000    -3.847000000    -0.461000000
C    -0.209000000    -5.306000000    -0.757000000
O    -0.002000000    -6.148000000     0.130000000
O    -0.424000000    -5.666000000    -1.903000000
