17
-95.05911
C     2.411000000    -1.946000000    -1.204000000
H     3.320000000    -2.023000000    -1.795000000
C     1.841000000    -0.684000000    -0.955000000
H     2.231000000     0.235000000    -1.386000000
C     0.611000000    -0.561000000    -0.262000000
C     0.058000000     0.804000000     0.040000000
H    -1.013000000     0.754000000    -0.167000000
H     0.266000000     0.984000000     1.096000000
H     0.552000000     1.640000000    -0.460000000
C    -0.060000000    -1.708000000     0.102000000
H    -0.987000000    -1.604000000     0.661000000
C     0.542000000    -2.935000000    -0.127000000
H     0.056000000    -3.852000000     0.195000000
C     1.712000000    -3.066000000    -0.894000000
C     2.246000000    -4.426000000    -1.288000000
O     1.699000000    -5.410000000    -0.862000000
O     3.230000000    -4.541000000    -1.965000000
