17
-93.60580
C    -1.195000000    -1.373000000    -1.852000000
H    -1.997000000    -1.584000000    -2.555000000
C    -1.120000000    -0.141000000    -1.224000000
H    -1.810000000     0.644000000    -1.519000000
C    -0.123000000     0.098000000    -0.316000000
C    -0.080000000     1.329000000     0.491000000
H    -0.727000000     1.185000000     1.359000000
H     0.904000000     1.640000000     0.846000000
H    -0.478000000     2.211000000    -0.017000000
C     0.773000000    -0.916000000     0.100000000
H     1.445000000    -0.710000000     0.929000000
C     0.567000000    -2.197000000    -0.450000000
H     1.242000000    -2.994000000    -0.149000000
C    -0.395000000    -2.411000000    -1.460000000
C    -0.478000000    -3.784000000    -2.089000000
O     0.170000000    -4.676000000    -1.625000000
O    -1.412000000    -4.105000000    -2.844000000
