17
-96.24606
C    -0.086000000    -1.933000000    -1.556000000
H    -0.444000000    -2.528000000    -2.392000000
C    -0.416000000    -0.611000000    -1.311000000
H    -1.030000000    -0.044000000    -2.005000000
C     0.199000000     0.070000000    -0.242000000
C    -0.146000000     1.493000000     0.113000000
H     0.625000000     1.942000000     0.742000000
H    -0.416000000     2.121000000    -0.739000000
H    -1.079000000     1.614000000     0.668000000
C     1.131000000    -0.651000000     0.557000000
H     1.533000000    -0.241000000     1.480000000
C     1.257000000    -2.021000000     0.432000000
H     1.932000000    -2.558000000     1.093000000
C     0.676000000    -2.680000000    -0.667000000
C     0.811000000    -4.196000000    -0.865000000
O     1.757000000    -4.780000000    -0.335000000
O     0.139000000    -4.855000000    -1.723000000
