17
-91.47452
C     0.223000000    -2.527000000    -0.543000000
H    -0.328000000    -3.332000000    -1.022000000
C    -0.385000000    -1.233000000    -0.634000000
H    -1.192000000    -0.989000000    -1.320000000
C     0.117000000    -0.221000000     0.185000000
C    -0.483000000     1.146000000     0.178000000
H     0.173000000     1.891000000    -0.278000000
H    -1.425000000     1.122000000    -0.374000000
H    -0.717000000     1.455000000     1.199000000
C     1.072000000    -0.566000000     1.203000000
H     1.433000000     0.265000000     1.802000000
C     1.720000000    -1.792000000     1.203000000
H     2.613000000    -1.956000000     1.801000000
C     1.159000000    -2.837000000     0.484000000
C     1.866000000    -4.194000000     0.436000000
O     2.577000000    -4.560000000     1.360000000
O     1.686000000    -4.998000000    -0.474000000
