17
-94.88984
C    -0.432000000    -2.546000000    -0.510000000
H    -0.993000000    -3.298000000    -1.058000000
C    -0.700000000    -1.234000000    -0.661000000
H    -1.460000000    -0.994000000    -1.401000000
C    -0.052000000    -0.272000000     0.006000000
C    -0.426000000     1.175000000    -0.155000000
H    -0.339000000     1.682000000     0.808000000
H     0.313000000     1.541000000    -0.870000000
H    -1.466000000     1.238000000    -0.482000000
C     0.986000000    -0.619000000     0.869000000
H     1.528000000     0.135000000     1.433000000
C     1.409000000    -1.946000000     0.904000000
H     2.270000000    -2.263000000     1.487000000
C     0.696000000    -2.946000000     0.230000000
C     1.003000000    -4.418000000     0.535000000
O     2.087000000    -4.712000000     0.919000000
O     0.144000000    -5.251000000     0.245000000
