17
-96.37938
C     0.764000000    -2.460000000    -0.593000000
H     0.754000000    -3.191000000    -1.398000000
C    -0.110000000    -1.332000000    -0.699000000
H    -0.729000000    -1.187000000    -1.581000000
C     0.002000000    -0.371000000     0.252000000
C    -0.749000000     0.896000000     0.262000000
H    -0.082000000     1.761000000     0.247000000
H    -1.328000000     1.020000000    -0.656000000
H    -1.440000000     0.825000000     1.104000000
C     0.851000000    -0.519000000     1.352000000
H     0.978000000     0.273000000     2.086000000
C     1.560000000    -1.693000000     1.536000000
H     2.225000000    -1.808000000     2.388000000
C     1.526000000    -2.680000000     0.573000000
C     2.391000000    -3.963000000     0.580000000
O     3.415000000    -3.935000000     1.286000000
O     2.096000000    -4.908000000    -0.058000000
