17
-93.25373
C     0.284000000    -2.488000000    -1.314000000
H     0.265000000    -3.088000000    -2.220000000
C    -0.285000000    -1.211000000    -1.227000000
H    -0.755000000    -0.846000000    -2.136000000
C    -0.038000000    -0.531000000    -0.034000000
C    -0.713000000     0.820000000     0.096000000
H    -0.804000000     1.251000000     1.096000000
H    -0.199000000     1.557000000    -0.525000000
H    -1.734000000     0.736000000    -0.281000000
C     0.584000000    -1.075000000     1.063000000
H     0.743000000    -0.477000000     1.957000000
C     1.019000000    -2.383000000     1.005000000
H     1.349000000    -2.944000000     1.877000000
C     0.914000000    -3.100000000    -0.203000000
C     1.511000000    -4.454000000    -0.338000000
O     1.943000000    -5.035000000     0.644000000
O     1.884000000    -4.860000000    -1.419000000
