17
-90.13056
C    -0.018000000    -2.412000000    -1.316000000
H    -0.065000000    -3.048000000    -2.196000000
C    -0.674000000    -1.168000000    -1.287000000
H    -1.366000000    -0.809000000    -2.045000000
C    -0.379000000    -0.352000000    -0.222000000
C    -1.083000000     0.909000000     0.072000000
H    -2.059000000     0.646000000     0.483000000
H    -0.574000000     1.574000000     0.772000000
H    -1.227000000     1.421000000    -0.882000000
C     0.618000000    -0.662000000     0.680000000
H     0.862000000    -0.004000000     1.510000000
C     1.234000000    -1.902000000     0.700000000
H     1.816000000    -2.369000000     1.491000000
C     0.907000000    -2.800000000    -0.345000000
C     1.273000000    -4.223000000    -0.365000000
O     1.676000000    -4.762000000     0.688000000
O     1.266000000    -4.894000000    -1.352000000
