17
-95.05024
C    -0.173000000    -3.076000000    -1.336000000
H    -0.623000000    -3.668000000    -2.129000000
C    -0.511000000    -1.687000000    -1.191000000
H    -1.136000000    -1.237000000    -1.958000000
C    -0.009000000    -0.939000000    -0.122000000
C    -0.333000000     0.540000000     0.168000000
H    -1.086000000     0.674000000     0.948000000
H     0.595000000     1.037000000     0.457000000
H    -0.826000000     1.023000000    -0.678000000
C     0.810000000    -1.574000000     0.776000000
H     1.090000000    -0.985000000     1.646000000
C     1.195000000    -2.923000000     0.682000000
H     1.909000000    -3.350000000     1.383000000
C     0.760000000    -3.616000000    -0.446000000
C     1.121000000    -5.036000000    -0.723000000
O     1.897000000    -5.545000000     0.098000000
O     0.976000000    -5.598000000    -1.817000000
