17
-95.38068
C     0.090000000    -2.445000000    -0.677000000
H    -0.184000000    -3.194000000    -1.415000000
C    -0.374000000    -1.193000000    -0.703000000
H    -1.076000000    -0.943000000    -1.494000000
C    -0.085000000    -0.232000000     0.292000000
C    -0.718000000     1.147000000     0.111000000
H    -1.217000000     1.342000000    -0.840000000
H    -1.499000000     1.295000000     0.859000000
H     0.117000000     1.818000000     0.324000000
C     0.708000000    -0.588000000     1.345000000
H     0.936000000     0.159000000     2.101000000
C     1.291000000    -1.884000000     1.351000000
H     1.955000000    -2.240000000     2.134000000
C     0.877000000    -2.877000000     0.441000000
C     1.379000000    -4.332000000     0.439000000
O     2.002000000    -4.718000000     1.476000000
O     1.099000000    -5.083000000    -0.434000000
