17
-97.15665
C     1.369000000    -2.531000000    -0.815000000
H     1.337000000    -3.098000000    -1.742000000
C     0.482000000    -1.374000000    -0.752000000
H    -0.168000000    -1.230000000    -1.611000000
C     0.441000000    -0.561000000     0.374000000
C    -0.515000000     0.597000000     0.407000000
H    -0.180000000     1.500000000    -0.106000000
H    -1.382000000     0.305000000    -0.188000000
H    -0.828000000     0.877000000     1.415000000
C     1.333000000    -0.795000000     1.445000000
H     1.281000000    -0.208000000     2.358000000
C     2.149000000    -1.965000000     1.405000000
H     2.894000000    -2.254000000     2.142000000
C     2.169000000    -2.853000000     0.274000000
C     3.041000000    -4.040000000     0.309000000
O     3.449000000    -4.483000000     1.402000000
O     3.182000000    -4.690000000    -0.704000000
