17
-91.53478
C     0.499000000    -2.261000000    -1.362000000
H     0.419000000    -2.744000000    -2.332000000
C    -0.255000000    -1.132000000    -1.066000000
H    -0.982000000    -0.822000000    -1.812000000
C    -0.206000000    -0.509000000     0.164000000
C    -0.999000000     0.783000000     0.410000000
H    -2.045000000     0.699000000     0.109000000
H    -0.857000000     1.242000000     1.391000000
H    -0.631000000     1.498000000    -0.328000000
C     0.668000000    -1.024000000     1.129000000
H     0.704000000    -0.481000000     2.070000000
C     1.382000000    -2.154000000     0.828000000
H     2.108000000    -2.504000000     1.557000000
C     1.328000000    -2.855000000    -0.409000000
C     2.202000000    -4.039000000    -0.738000000
O     3.000000000    -4.373000000     0.126000000
O     2.082000000    -4.744000000    -1.676000000
