17
-97.03864
C    -0.018000000    -2.667000000    -1.192000000
H    -0.468000000    -3.173000000    -2.042000000
C    -0.443000000    -1.340000000    -0.937000000
H    -1.216000000    -0.905000000    -1.566000000
C     0.162000000    -0.599000000     0.095000000
C    -0.335000000     0.757000000     0.430000000
H    -1.427000000     0.738000000     0.444000000
H    -0.031000000     1.248000000     1.357000000
H    -0.117000000     1.417000000    -0.413000000
C     1.186000000    -1.167000000     0.836000000
H     1.766000000    -0.566000000     1.531000000
C     1.586000000    -2.431000000     0.515000000
H     2.374000000    -2.934000000     1.069000000
C     0.943000000    -3.220000000    -0.427000000
C     1.344000000    -4.694000000    -0.641000000
O     2.304000000    -5.127000000     0.002000000
O     0.885000000    -5.403000000    -1.517000000
