17
-93.24305
C    -0.326000000    -3.844000000    -0.667000000
H    -0.988000000    -4.569000000    -1.131000000
C    -0.745000000    -2.514000000    -0.633000000
H    -1.748000000    -2.290000000    -0.987000000
C     0.039000000    -1.524000000    -0.086000000
C    -0.475000000    -0.088000000    -0.067000000
H    -1.136000000     0.256000000    -0.866000000
H    -0.904000000     0.177000000     0.902000000
H     0.392000000     0.571000000     0.015000000
C     1.240000000    -1.834000000     0.499000000
H     1.932000000    -1.123000000     0.942000000
C     1.689000000    -3.090000000     0.401000000
H     2.629000000    -3.313000000     0.900000000
C     0.930000000    -4.127000000    -0.151000000
C     1.449000000    -5.504000000    -0.081000000
O     2.572000000    -5.811000000     0.301000000
O     0.747000000    -6.361000000    -0.674000000
