17
-93.57408
C     0.703000000    -2.394000000    -1.323000000
H     0.753000000    -2.936000000    -2.264000000
C     0.045000000    -1.157000000    -1.268000000
H    -0.505000000    -0.787000000    -2.129000000
C     0.116000000    -0.458000000    -0.055000000
C    -0.480000000     0.915000000     0.090000000
H    -1.392000000     1.032000000    -0.499000000
H    -0.775000000     1.157000000     1.114000000
H     0.277000000     1.629000000    -0.241000000
C     0.759000000    -0.934000000     0.975000000
H     0.807000000    -0.344000000     1.886000000
C     1.332000000    -2.242000000     0.987000000
H     1.815000000    -2.597000000     1.894000000
C     1.374000000    -2.891000000    -0.183000000
C     2.143000000    -4.205000000    -0.259000000
O     2.811000000    -4.612000000     0.652000000
O     2.156000000    -4.853000000    -1.344000000
