17
-90.95092
C    -0.143000000    -2.709000000    -1.042000000
H    -0.682000000    -3.240000000    -1.823000000
C    -0.362000000    -1.373000000    -1.003000000
H    -1.095000000    -0.946000000    -1.683000000
C     0.254000000    -0.602000000     0.031000000
C    -0.160000000     0.822000000     0.318000000
H    -1.012000000     1.033000000    -0.332000000
H    -0.699000000     0.656000000     1.252000000
H     0.616000000     1.585000000     0.223000000
C     1.221000000    -1.154000000     0.813000000
H     1.629000000    -0.568000000     1.632000000
C     1.470000000    -2.563000000     0.704000000
H     2.194000000    -3.049000000     1.353000000
C     0.819000000    -3.332000000    -0.275000000
C     1.211000000    -4.796000000    -0.583000000
O     2.048000000    -5.401000000     0.069000000
O     0.640000000    -5.396000000    -1.472000000
