17
-97.92270
C     0.712000000    -1.849000000    -1.299000000
H     0.360000000    -2.390000000    -2.173000000
C    -0.076000000    -0.796000000    -0.826000000
H    -0.994000000    -0.491000000    -1.322000000
C     0.316000000    -0.102000000     0.355000000
C    -0.380000000     1.112000000     0.939000000
H    -1.066000000     1.457000000     0.162000000
H    -0.844000000     0.853000000     1.892000000
H     0.229000000     2.008000000     1.072000000
C     1.492000000    -0.454000000     1.024000000
H     1.783000000     0.116000000     1.903000000
C     2.258000000    -1.537000000     0.545000000
H     3.180000000    -1.777000000     1.069000000
C     1.828000000    -2.244000000    -0.534000000
C     2.599000000    -3.469000000    -0.957000000
O     3.739000000    -3.623000000    -0.533000000
O     2.176000000    -4.250000000    -1.791000000
