17
-88.86963
C     0.511000000    -0.953000000    -2.262000000
H     0.062000000    -1.170000000    -3.227000000
C    -0.343000000    -0.309000000    -1.386000000
H    -1.336000000    -0.059000000    -1.751000000
C     0.008000000    -0.022000000    -0.116000000
C    -0.863000000     0.840000000     0.802000000
H    -1.789000000     0.329000000     1.074000000
H    -0.333000000     1.128000000     1.712000000
H    -1.180000000     1.757000000     0.302000000
C     1.234000000    -0.386000000     0.365000000
H     1.578000000    -0.155000000     1.370000000
C     1.995000000    -1.257000000    -0.407000000
H     2.897000000    -1.691000000     0.018000000
C     1.670000000    -1.491000000    -1.721000000
C     2.544000000    -2.346000000    -2.659000000
O     3.645000000    -2.667000000    -2.296000000
O     2.275000000    -2.556000000    -3.817000000
