17
-85.12579
C     0.686000000    -2.246000000    -1.180000000
H     0.319000000    -2.853000000    -2.004000000
C    -0.020000000    -1.057000000    -0.779000000
H    -0.868000000    -0.779000000    -1.399000000
C     0.328000000    -0.334000000     0.265000000
C    -0.568000000     0.775000000     0.755000000
H    -0.593000000     1.632000000     0.078000000
H    -1.538000000     0.327000000     0.982000000
H    -0.115000000     1.160000000     1.671000000
C     1.391000000    -0.739000000     1.030000000
H     1.722000000    -0.130000000     1.867000000
C     2.146000000    -1.826000000     0.663000000
H     2.997000000    -1.981000000     1.322000000
C     1.687000000    -2.671000000    -0.366000000
C     2.474000000    -3.959000000    -0.651000000
O     3.574000000    -4.060000000    -0.129000000
O     2.031000000    -4.718000000    -1.394000000
