17
-96.49218
C    -0.082000000    -1.492000000    -1.835000000
H    -0.589000000    -1.922000000    -2.695000000
C    -0.737000000    -0.456000000    -1.126000000
H    -1.753000000    -0.195000000    -1.413000000
C    -0.151000000     0.072000000     0.027000000
C    -0.814000000     1.098000000     0.851000000
H    -0.442000000     2.108000000     0.664000000
H    -1.898000000     1.193000000     0.760000000
H    -0.596000000     1.013000000     1.917000000
C     1.120000000    -0.387000000     0.377000000
H     1.628000000    -0.014000000     1.263000000
C     1.816000000    -1.376000000    -0.365000000
H     2.800000000    -1.715000000    -0.048000000
C     1.189000000    -1.907000000    -1.481000000
C     1.911000000    -2.945000000    -2.335000000
O     3.103000000    -3.126000000    -2.222000000
O     1.405000000    -3.497000000    -3.329000000
