17
-96.79568
C     0.044000000    -0.029000000    -2.690000000
H    -0.569000000     0.152000000    -3.569000000
C    -0.692000000     0.035000000    -1.466000000
H    -1.767000000     0.185000000    -1.404000000
C    -0.013000000    -0.119000000    -0.219000000
C    -0.738000000    -0.074000000     1.070000000
H    -1.360000000    -0.971000000     1.106000000
H    -0.078000000     0.055000000     1.930000000
H    -1.371000000     0.815000000     1.010000000
C     1.341000000    -0.388000000    -0.205000000
H     1.828000000    -0.500000000     0.760000000
C     2.098000000    -0.464000000    -1.365000000
H     3.139000000    -0.777000000    -1.366000000
C     1.453000000    -0.253000000    -2.597000000
C     2.269000000    -0.384000000    -3.899000000
O     3.427000000    -0.767000000    -3.896000000
O     1.672000000    -0.298000000    -4.963000000
