17
-92.41302
C     0.883000000    -0.443000000    -2.754000000
H     0.478000000    -0.659000000    -3.739000000
C    -0.062000000    -0.228000000    -1.738000000
H    -1.132000000    -0.215000000    -1.929000000
C     0.455000000    -0.005000000    -0.502000000
C    -0.442000000     0.309000000     0.586000000
H    -1.170000000     0.975000000     0.118000000
H    -0.930000000    -0.616000000     0.898000000
H     0.016000000     0.656000000     1.515000000
C     1.772000000     0.002000000    -0.237000000
H     2.086000000     0.075000000     0.801000000
C     2.717000000    -0.165000000    -1.263000000
H     3.768000000     0.005000000    -1.040000000
C     2.260000000    -0.413000000    -2.546000000
C     3.285000000    -0.407000000    -3.671000000
O     4.453000000    -0.247000000    -3.363000000
O     2.955000000    -0.667000000    -4.814000000
