17
-99.78543
C     0.440000000     0.459000000    -2.386000000
H    -0.078000000     0.721000000    -3.305000000
C    -0.365000000     0.389000000    -1.273000000
H    -1.450000000     0.361000000    -1.337000000
C     0.231000000     0.182000000     0.029000000
C    -0.713000000     0.254000000     1.249000000
H    -0.162000000     0.398000000     2.181000000
H    -1.442000000     1.064000000     1.187000000
H    -1.267000000    -0.686000000     1.240000000
C     1.540000000    -0.116000000     0.124000000
H     1.934000000    -0.308000000     1.118000000
C     2.399000000    -0.032000000    -1.037000000
H     3.479000000    -0.093000000    -0.933000000
C     1.863000000     0.328000000    -2.286000000
C     2.787000000     0.620000000    -3.473000000
O     4.004000000     0.611000000    -3.230000000
O     2.243000000     0.643000000    -4.561000000
