17
-94.51772
C    -0.297000000    -0.133000000    -2.796000000
H    -0.775000000     0.168000000    -3.725000000
C    -0.808000000     0.255000000    -1.560000000
H    -1.714000000     0.856000000    -1.559000000
C    -0.076000000    -0.033000000    -0.420000000
C    -0.752000000     0.341000000     0.969000000
H    -1.581000000    -0.325000000     1.218000000
H     0.005000000     0.262000000     1.752000000
H    -1.144000000     1.359000000     1.012000000
C     1.137000000    -0.779000000    -0.481000000
H     1.756000000    -0.927000000     0.399000000
C     1.725000000    -1.099000000    -1.712000000
H     2.713000000    -1.544000000    -1.803000000
C     1.010000000    -0.686000000    -2.853000000
C     1.627000000    -1.022000000    -4.185000000
O     2.781000000    -1.305000000    -4.292000000
O     0.845000000    -1.087000000    -5.126000000
