17
-97.46858
C     0.519000000    -0.211000000    -2.416000000
H     0.252000000    -0.483000000    -3.434000000
C    -0.551000000    -0.062000000    -1.560000000
H    -1.578000000    -0.222000000    -1.877000000
C    -0.261000000     0.220000000    -0.260000000
C    -1.348000000     0.211000000     0.768000000
H    -1.270000000    -0.808000000     1.152000000
H    -1.115000000     0.996000000     1.491000000
H    -2.362000000     0.352000000     0.390000000
C     1.066000000     0.295000000     0.179000000
H     1.224000000     0.428000000     1.246000000
C     2.149000000     0.131000000    -0.668000000
H     3.197000000     0.270000000    -0.415000000
C     1.856000000    -0.095000000    -1.993000000
C     2.978000000    -0.515000000    -3.017000000
O     4.023000000    -0.822000000    -2.484000000
O     2.745000000    -0.684000000    -4.220000000
