17
-92.44858
C     0.512000000     0.255000000    -2.543000000
H     0.147000000     0.389000000    -3.558000000
C    -0.226000000     0.503000000    -1.435000000
H    -1.183000000     0.965000000    -1.663000000
C     0.241000000     0.303000000    -0.134000000
C    -0.647000000     0.540000000     1.059000000
H    -1.634000000     0.921000000     0.788000000
H    -0.717000000    -0.385000000     1.637000000
H    -0.129000000     1.275000000     1.678000000
C     1.564000000    -0.190000000    -0.020000000
H     1.940000000    -0.426000000     0.972000000
C     2.338000000    -0.463000000    -1.157000000
H     3.297000000    -0.974000000    -1.115000000
C     1.841000000    -0.207000000    -2.452000000
C     2.688000000    -0.528000000    -3.661000000
O     3.667000000    -1.164000000    -3.561000000
O     2.368000000    -0.132000000    -4.765000000
