17
-88.85225
C     0.642000000    -0.010000000    -2.488000000
H     0.257000000     0.007000000    -3.504000000
C    -0.298000000     0.149000000    -1.507000000
H    -1.334000000     0.265000000    -1.815000000
C     0.042000000     0.233000000    -0.143000000
C    -0.979000000     0.296000000     1.003000000
H    -1.164000000    -0.751000000     1.251000000
H    -0.594000000     0.889000000     1.835000000
H    -1.984000000     0.618000000     0.722000000
C     1.354000000     0.107000000     0.258000000
H     1.595000000    -0.050000000     1.307000000
C     2.360000000    -0.046000000    -0.752000000
H     3.401000000    -0.302000000    -0.571000000
C     2.029000000    -0.122000000    -2.128000000
C     3.055000000    -0.285000000    -3.276000000
O     4.242000000    -0.387000000    -3.052000000
O     2.583000000    -0.566000000    -4.311000000
