17
-102.83910
C    -0.209000000    -1.658000000    -1.949000000
H    -0.580000000    -2.588000000    -2.371000000
C    -0.561000000    -1.327000000    -0.642000000
H    -1.271000000    -1.936000000    -0.089000000
C    -0.089000000    -0.112000000    -0.153000000
C    -0.302000000     0.224000000     1.319000000
H    -1.347000000     0.482000000     1.505000000
H    -0.139000000    -0.698000000     1.882000000
H     0.326000000     1.044000000     1.673000000
C     0.757000000     0.697000000    -0.932000000
H     1.138000000     1.613000000    -0.488000000
C     1.064000000     0.313000000    -2.267000000
H     1.698000000     0.964000000    -2.863000000
C     0.586000000    -0.860000000    -2.784000000
C     0.893000000    -1.310000000    -4.213000000
O     1.744000000    -0.635000000    -4.792000000
O     0.259000000    -2.194000000    -4.821000000
