17
-98.67855
C     0.296000000    -1.798000000    -2.031000000
H    -0.194000000    -2.613000000    -2.557000000
C    -0.422000000    -1.308000000    -0.942000000
H    -1.369000000    -1.772000000    -0.678000000
C     0.159000000    -0.247000000    -0.167000000
C    -0.585000000     0.497000000     0.862000000
H    -1.469000000     0.088000000     1.356000000
H     0.082000000     0.735000000     1.693000000
H    -0.928000000     1.440000000     0.430000000
C     1.482000000     0.165000000    -0.424000000
H     1.971000000     0.886000000     0.226000000
C     2.143000000    -0.327000000    -1.526000000
H     3.157000000    -0.033000000    -1.782000000
C     1.572000000    -1.291000000    -2.408000000
C     2.344000000    -1.924000000    -3.607000000
O     3.427000000    -1.467000000    -4.025000000
O     1.749000000    -2.853000000    -4.068000000
