17
-95.13304
C     2.067000000    -1.936000000    -0.880000000
H     3.031000000    -1.935000000    -1.383000000
C     1.524000000    -0.697000000    -0.628000000
H     1.989000000     0.224000000    -0.970000000
C     0.254000000    -0.562000000    -0.007000000
C    -0.381000000     0.771000000     0.318000000
H    -0.739000000     0.876000000     1.344000000
H     0.308000000     1.613000000     0.226000000
H    -1.239000000     0.973000000    -0.326000000
C    -0.433000000    -1.736000000     0.224000000
H    -1.434000000    -1.638000000     0.635000000
C     0.142000000    -2.985000000    -0.040000000
H    -0.444000000    -3.865000000     0.212000000
C     1.432000000    -3.098000000    -0.600000000
C     2.112000000    -4.393000000    -0.870000000
O     1.470000000    -5.442000000    -0.696000000
O     3.100000000    -4.361000000    -1.530000000
