17
-89.68548
C     1.287000000    -1.831000000    -1.526000000
H     1.138000000    -2.878000000    -1.776000000
C     0.322000000    -1.167000000    -0.791000000
H    -0.632000000    -1.606000000    -0.511000000
C     0.485000000     0.123000000    -0.266000000
C    -0.506000000     0.758000000     0.672000000
H    -1.203000000     0.054000000     1.131000000
H    -0.030000000     1.137000000     1.578000000
H    -1.116000000     1.540000000     0.214000000
C     1.691000000     0.756000000    -0.628000000
H     1.865000000     1.741000000    -0.202000000
C     2.678000000     0.146000000    -1.361000000
H     3.653000000     0.623000000    -1.423000000
C     2.474000000    -1.155000000    -1.912000000
C     3.502000000    -1.826000000    -2.718000000
O     4.284000000    -1.124000000    -3.285000000
O     3.260000000    -2.952000000    -3.129000000
