17
-98.94582
C     0.456000000    -1.274000000    -2.127000000
H     0.145000000    -1.835000000    -3.004000000
C    -0.425000000    -0.970000000    -1.063000000
H    -1.459000000    -1.305000000    -1.098000000
C     0.006000000    -0.119000000    -0.019000000
C    -0.813000000     0.302000000     1.116000000
H    -1.860000000     0.011000000     1.011000000
H    -0.386000000    -0.071000000     2.049000000
H    -0.852000000     1.386000000     1.246000000
C     1.304000000     0.320000000     0.000000000
H     1.633000000     1.087000000     0.696000000
C     2.234000000    -0.052000000    -0.965000000
H     3.261000000     0.300000000    -1.020000000
C     1.789000000    -0.847000000    -2.063000000
C     2.694000000    -1.168000000    -3.196000000
O     3.820000000    -0.682000000    -3.344000000
O     2.224000000    -1.826000000    -4.139000000
