17
-92.61748
C    -0.176000000    -1.096000000    -2.368000000
H    -0.650000000    -1.861000000    -2.977000000
C    -0.747000000    -0.934000000    -1.118000000
H    -1.478000000    -1.639000000    -0.730000000
C    -0.151000000    -0.059000000    -0.187000000
C    -0.728000000     0.023000000     1.181000000
H    -0.031000000    -0.388000000     1.914000000
H    -0.730000000     1.108000000     1.300000000
H    -1.725000000    -0.387000000     1.356000000
C     0.976000000     0.605000000    -0.521000000
H     1.330000000     1.329000000     0.209000000
C     1.618000000     0.430000000    -1.792000000
H     2.499000000     1.044000000    -1.962000000
C     1.026000000    -0.453000000    -2.739000000
C     1.672000000    -0.685000000    -4.056000000
O     2.737000000    -0.107000000    -4.379000000
O     1.181000000    -1.443000000    -4.868000000
