17
-86.66547
C     1.411000000    -1.463000000    -1.793000000
H     1.143000000    -2.229000000    -2.517000000
C     0.351000000    -1.109000000    -0.899000000
H    -0.604000000    -1.626000000    -0.957000000
C     0.519000000     0.004000000    -0.072000000
C    -0.538000000     0.214000000     0.963000000
H    -1.517000000    -0.085000000     0.581000000
H    -0.292000000    -0.456000000     1.789000000
H    -0.599000000     1.219000000     1.384000000
C     1.732000000     0.697000000    -0.155000000
H     1.820000000     1.565000000     0.494000000
C     2.764000000     0.356000000    -0.960000000
H     3.665000000     0.964000000    -0.934000000
C     2.609000000    -0.749000000    -1.780000000
C     3.713000000    -1.260000000    -2.694000000
O     4.826000000    -1.064000000    -2.459000000
O     3.437000000    -1.820000000    -3.737000000
