17
-93.61031
C     0.606000000    -1.459000000    -1.980000000
H     0.351000000    -2.325000000    -2.585000000
C    -0.244000000    -1.069000000    -0.986000000
H    -1.261000000    -1.442000000    -0.898000000
C     0.159000000    -0.049000000    -0.078000000
C    -0.828000000     0.496000000     0.995000000
H    -0.837000000    -0.186000000     1.848000000
H    -0.465000000     1.460000000     1.356000000
H    -1.857000000     0.476000000     0.628000000
C     1.405000000     0.404000000    -0.123000000
H     1.755000000     1.196000000     0.534000000
C     2.313000000     0.004000000    -1.047000000
H     3.281000000     0.497000000    -1.093000000
C     1.881000000    -0.877000000    -2.083000000
C     2.867000000    -1.207000000    -3.205000000
O     3.910000000    -0.551000000    -3.376000000
O     2.520000000    -2.026000000    -4.030000000
