17
-94.23238
C     1.221000000    -1.334000000    -2.152000000
H     0.985000000    -1.993000000    -2.984000000
C     0.242000000    -0.852000000    -1.326000000
H    -0.788000000    -1.178000000    -1.449000000
C     0.481000000     0.170000000    -0.413000000
C    -0.739000000     0.715000000     0.393000000
H    -1.390000000     1.276000000    -0.281000000
H    -1.393000000    -0.119000000     0.659000000
H    -0.547000000     1.252000000     1.325000000
C     1.758000000     0.704000000    -0.327000000
H     2.007000000     1.556000000     0.301000000
C     2.753000000     0.176000000    -1.054000000
H     3.756000000     0.552000000    -0.873000000
C     2.514000000    -0.892000000    -2.004000000
C     3.608000000    -1.357000000    -2.960000000
O     4.736000000    -0.855000000    -2.951000000
O     3.275000000    -2.043000000    -3.936000000
