17
-96.47225
C     0.753000000    -1.627000000    -1.853000000
H     0.357000000    -2.392000000    -2.517000000
C     0.003000000    -1.143000000    -0.828000000
H    -1.015000000    -1.516000000    -0.741000000
C     0.513000000    -0.100000000     0.003000000
C    -0.407000000     0.552000000     1.016000000
H    -1.168000000    -0.160000000     1.340000000
H     0.240000000     0.876000000     1.833000000
H    -0.879000000     1.418000000     0.546000000
C     1.846000000     0.260000000    -0.144000000
H     2.186000000     1.106000000     0.449000000
C     2.643000000    -0.251000000    -1.137000000
H     3.660000000     0.120000000    -1.241000000
C     2.104000000    -1.264000000    -1.981000000
C     2.961000000    -1.778000000    -3.116000000
O     3.835000000    -1.109000000    -3.606000000
O     2.631000000    -2.815000000    -3.687000000
