17
-92.67419
C     0.683000000    -1.235000000    -1.667000000
H     0.364000000    -1.917000000    -2.452000000
C    -0.229000000    -0.914000000    -0.683000000
H    -1.186000000    -1.422000000    -0.598000000
C     0.086000000     0.134000000     0.231000000
C    -0.875000000     0.506000000     1.357000000
H    -1.653000000    -0.259000000     1.382000000
H    -0.500000000     0.648000000     2.373000000
H    -1.540000000     1.333000000     1.098000000
C     1.367000000     0.689000000     0.165000000
H     1.540000000     1.562000000     0.789000000
C     2.294000000     0.245000000    -0.782000000
H     3.316000000     0.614000000    -0.787000000
C     1.931000000    -0.666000000    -1.768000000
C     2.788000000    -0.909000000    -2.905000000
O     3.929000000    -0.417000000    -3.036000000
O     2.460000000    -1.752000000    -3.723000000
