17
-92.38124
C     0.977000000    -0.938000000    -1.934000000
H     0.814000000    -1.599000000    -2.781000000
C    -0.008000000    -0.744000000    -0.967000000
H    -0.995000000    -1.181000000    -1.093000000
C     0.148000000     0.117000000     0.069000000
C    -0.957000000     0.349000000     1.040000000
H    -0.686000000     0.849000000     1.972000000
H    -1.626000000     1.066000000     0.560000000
H    -1.461000000    -0.588000000     1.285000000
C     1.392000000     0.844000000     0.189000000
H     1.531000000     1.456000000     1.077000000
C     2.425000000     0.602000000    -0.748000000
H     3.426000000     0.926000000    -0.473000000
C     2.269000000    -0.363000000    -1.742000000
C     3.409000000    -0.708000000    -2.718000000
O     4.324000000     0.081000000    -2.930000000
O     3.387000000    -1.732000000    -3.311000000
