17
-87.21521
C     0.368000000    -1.097000000    -2.045000000
H     0.016000000    -1.832000000    -2.764000000
C    -0.432000000    -0.834000000    -1.003000000
H    -1.434000000    -1.255000000    -1.000000000
C     0.081000000    -0.039000000     0.066000000
C    -0.951000000     0.433000000     1.057000000
H    -1.976000000     0.086000000     0.915000000
H    -0.550000000     0.257000000     2.057000000
H    -0.933000000     1.525000000     1.037000000
C     1.346000000     0.576000000     0.014000000
H     1.698000000     1.316000000     0.728000000
C     2.134000000     0.282000000    -1.087000000
H     3.147000000     0.669000000    -1.156000000
C     1.622000000    -0.580000000    -2.088000000
C     2.558000000    -0.880000000    -3.280000000
O     3.658000000    -0.416000000    -3.254000000
O     2.304000000    -1.841000000    -3.957000000
