17
-97.73960
C     0.407000000    -1.307000000    -2.331000000
H     0.164000000    -1.995000000    -3.136000000
C    -0.335000000    -1.151000000    -1.183000000
H    -1.278000000    -1.690000000    -1.129000000
C    -0.002000000    -0.153000000    -0.257000000
C    -0.921000000     0.169000000     0.958000000
H    -0.451000000     0.891000000     1.629000000
H    -1.786000000     0.660000000     0.508000000
H    -1.314000000    -0.698000000     1.492000000
C     1.158000000     0.641000000    -0.474000000
H     1.381000000     1.500000000     0.153000000
C     1.916000000     0.448000000    -1.606000000
H     2.780000000     1.057000000    -1.860000000
C     1.589000000    -0.516000000    -2.565000000
C     2.407000000    -0.674000000    -3.781000000
O     3.423000000    -0.027000000    -3.914000000
O     2.039000000    -1.432000000    -4.667000000
