17
-98.57550
C     1.164000000    -1.384000000    -2.621000000
H     1.126000000    -2.209000000    -3.329000000
C     0.227000000    -1.336000000    -1.599000000
H    -0.443000000    -2.177000000    -1.438000000
C     0.141000000    -0.231000000    -0.731000000
C    -0.793000000    -0.222000000     0.451000000
H    -0.358000000    -0.718000000     1.321000000
H    -0.889000000     0.796000000     0.834000000
H    -1.798000000    -0.615000000     0.287000000
C     1.148000000     0.734000000    -0.790000000
H     1.311000000     1.472000000    -0.009000000
C     2.057000000     0.752000000    -1.875000000
H     2.672000000     1.615000000    -2.120000000
C     2.008000000    -0.289000000    -2.805000000
C     2.949000000    -0.320000000    -4.037000000
O     3.525000000     0.737000000    -4.304000000
O     3.273000000    -1.348000000    -4.687000000
