17
-86.78884
C     0.823000000    -0.854000000    -1.905000000
H     0.568000000    -1.606000000    -2.646000000
C     0.108000000    -0.692000000    -0.775000000
H    -0.907000000    -1.066000000    -0.671000000
C     0.413000000     0.275000000     0.180000000
C    -0.617000000     0.490000000     1.260000000
H    -0.844000000    -0.508000000     1.640000000
H    -0.237000000     1.030000000     2.130000000
H    -1.470000000     0.992000000     0.799000000
C     1.580000000     1.017000000     0.035000000
H     1.841000000     1.837000000     0.699000000
C     2.379000000     0.821000000    -1.062000000
H     3.253000000     1.433000000    -1.270000000
C     2.056000000    -0.206000000    -2.009000000
C     2.971000000    -0.434000000    -3.164000000
O     4.040000000     0.134000000    -3.270000000
O     2.716000000    -1.136000000    -4.117000000
