17
-89.63298
C     1.322000000    -1.365000000    -1.887000000
H     1.299000000    -2.178000000    -2.608000000
C     0.348000000    -1.377000000    -0.898000000
H    -0.321000000    -2.234000000    -0.914000000
C     0.235000000    -0.409000000     0.101000000
C    -0.859000000    -0.567000000     1.175000000
H    -1.666000000    -1.084000000     0.652000000
H    -0.457000000    -1.165000000     1.995000000
H    -1.211000000     0.404000000     1.531000000
C     1.156000000     0.657000000    -0.045000000
H     1.142000000     1.426000000     0.723000000
C     2.115000000     0.657000000    -1.025000000
H     2.872000000     1.435000000    -0.985000000
C     2.153000000    -0.327000000    -2.047000000
C     3.194000000    -0.444000000    -3.134000000
O     3.935000000     0.497000000    -3.388000000
O     3.162000000    -1.323000000    -4.008000000
