17
-97.52072
C     1.551000000    -0.955000000    -1.822000000
H     1.733000000    -1.544000000    -2.717000000
C     0.331000000    -0.929000000    -1.056000000
H    -0.553000000    -1.435000000    -1.436000000
C     0.237000000    -0.129000000     0.082000000
C    -1.081000000     0.157000000     0.731000000
H    -1.686000000    -0.749000000     0.806000000
H    -0.910000000     0.569000000     1.728000000
H    -1.742000000     0.817000000     0.166000000
C     1.358000000     0.606000000     0.473000000
H     1.276000000     1.321000000     1.287000000
C     2.541000000     0.498000000    -0.234000000
H     3.413000000     0.990000000     0.189000000
C     2.684000000    -0.264000000    -1.428000000
C     4.050000000    -0.394000000    -2.106000000
O     5.059000000     0.241000000    -1.837000000
O     4.086000000    -1.183000000    -3.049000000
