17
-84.72436
C     1.409000000    -0.923000000    -1.839000000
H     1.501000000    -1.534000000    -2.733000000
C     0.175000000    -0.993000000    -1.187000000
H    -0.691000000    -1.555000000    -1.526000000
C     0.110000000    -0.339000000     0.090000000
C    -1.156000000    -0.195000000     0.902000000
H    -1.488000000    -1.093000000     1.429000000
H    -1.054000000     0.617000000     1.625000000
H    -1.969000000     0.179000000     0.277000000
C     1.096000000     0.498000000     0.579000000
H     0.988000000     1.120000000     1.464000000
C     2.250000000     0.667000000    -0.215000000
H     3.097000000     1.260000000     0.121000000
C     2.408000000    -0.013000000    -1.461000000
C     3.678000000    -0.072000000    -2.147000000
O     4.766000000     0.284000000    -1.688000000
O     3.731000000    -0.438000000    -3.295000000
