17
-96.38468
C     1.498000000    -1.460000000    -2.054000000
H     1.624000000    -2.383000000    -2.614000000
C     0.469000000    -1.231000000    -1.204000000
H    -0.425000000    -1.850000000    -1.188000000
C     0.483000000    -0.163000000    -0.247000000
C    -0.669000000    -0.092000000     0.726000000
H    -0.502000000    -0.669000000     1.638000000
H    -0.947000000     0.901000000     1.086000000
H    -1.559000000    -0.560000000     0.299000000
C     1.480000000     0.786000000    -0.304000000
H     1.481000000     1.694000000     0.294000000
C     2.493000000     0.635000000    -1.264000000
H     3.264000000     1.401000000    -1.286000000
C     2.554000000    -0.527000000    -2.098000000
C     3.767000000    -0.808000000    -3.012000000
O     4.728000000    -0.050000000    -3.055000000
O     3.594000000    -1.704000000    -3.765000000
