17
-89.30367
C     1.911000000    -1.404000000    -0.566000000
H     2.288000000    -2.323000000    -1.006000000
C     0.534000000    -1.165000000    -0.351000000
H    -0.234000000    -1.856000000    -0.690000000
C     0.130000000    -0.047000000     0.253000000
C    -1.344000000     0.306000000     0.458000000
H    -1.674000000     0.945000000    -0.364000000
H    -1.981000000    -0.562000000     0.637000000
H    -1.483000000     0.908000000     1.359000000
C     1.069000000     0.899000000     0.586000000
H     0.697000000     1.775000000     1.111000000
C     2.473000000     0.763000000     0.398000000
H     3.128000000     1.573000000     0.707000000
C     2.929000000    -0.445000000    -0.199000000
C     4.387000000    -0.709000000    -0.299000000
O     5.251000000    -0.071000000     0.204000000
O     4.677000000    -1.553000000    -1.159000000
