17
-89.62816
C     2.243000000    -1.779000000    -1.558000000
H     2.274000000    -2.610000000    -2.257000000
C     0.982000000    -1.492000000    -1.034000000
H     0.104000000    -2.094000000    -1.256000000
C     0.701000000    -0.465000000    -0.170000000
C    -0.706000000    -0.471000000     0.346000000
H    -0.827000000     0.452000000     0.917000000
H    -1.466000000    -0.382000000    -0.434000000
H    -0.956000000    -1.410000000     0.845000000
C     1.739000000     0.320000000     0.304000000
H     1.552000000     0.972000000     1.153000000
C     3.063000000    -0.038000000    -0.019000000
H     3.930000000     0.485000000     0.376000000
C     3.298000000    -0.977000000    -1.091000000
C     4.682000000    -1.289000000    -1.425000000
O     5.592000000    -0.490000000    -1.073000000
O     4.897000000    -2.355000000    -1.923000000
