17
-94.80734
C     2.664000000    -1.101000000    -0.657000000
H     3.128000000    -1.858000000    -1.283000000
C     1.275000000    -0.962000000    -0.582000000
H     0.713000000    -1.658000000    -1.200000000
C     0.723000000     0.028000000     0.320000000
C    -0.760000000     0.285000000     0.379000000
H    -1.040000000     0.905000000     1.233000000
H    -0.833000000     0.824000000    -0.568000000
H    -1.317000000    -0.651000000     0.299000000
C     1.530000000     0.908000000     1.011000000
H     1.092000000     1.690000000     1.626000000
C     2.902000000     0.652000000     0.995000000
H     3.560000000     1.344000000     1.515000000
C     3.477000000    -0.308000000     0.117000000
C     4.960000000    -0.242000000    -0.164000000
O     5.639000000     0.699000000     0.246000000
O     5.463000000    -1.111000000    -0.841000000
