17
-97.34618
C     2.153000000    -0.720000000    -0.848000000
H     2.556000000    -1.416000000    -1.580000000
C     0.765000000    -0.777000000    -0.689000000
H     0.098000000    -1.465000000    -1.202000000
C     0.214000000     0.057000000     0.239000000
C    -1.279000000     0.024000000     0.494000000
H    -1.651000000    -0.921000000     0.094000000
H    -1.484000000     0.110000000     1.563000000
H    -1.719000000     0.867000000    -0.044000000
C     1.025000000     0.934000000     0.972000000
H     0.504000000     1.450000000     1.774000000
C     2.379000000     1.063000000     0.742000000
H     2.971000000     1.640000000     1.448000000
C     2.988000000     0.165000000    -0.146000000
C     4.479000000     0.089000000    -0.301000000
O     5.210000000     0.949000000     0.229000000
O     4.926000000    -0.661000000    -1.139000000
