17
-89.91657
C     2.241000000    -0.981000000    -1.172000000
H     2.559000000    -1.601000000    -2.006000000
C     0.911000000    -0.911000000    -0.921000000
H     0.209000000    -1.393000000    -1.597000000
C     0.422000000    -0.201000000     0.143000000
C    -1.071000000    -0.112000000     0.444000000
H    -1.200000000     0.509000000     1.333000000
H    -1.774000000     0.195000000    -0.333000000
H    -1.361000000    -1.152000000     0.606000000
C     1.327000000     0.500000000     0.926000000
H     0.945000000     1.089000000     1.756000000
C     2.715000000     0.600000000     0.553000000
H     3.384000000     1.287000000     1.064000000
C     3.197000000    -0.261000000    -0.441000000
C     4.667000000    -0.374000000    -0.723000000
O     5.356000000     0.530000000    -0.304000000
O     5.073000000    -1.034000000    -1.668000000
