17
-90.81236
C     1.859000000    -1.384000000    -1.842000000
H     1.946000000    -2.065000000    -2.684000000
C     0.583000000    -0.976000000    -1.457000000
H    -0.348000000    -1.294000000    -1.921000000
C     0.443000000    -0.102000000    -0.398000000
C    -0.967000000     0.302000000     0.135000000
H    -1.343000000     1.118000000    -0.486000000
H    -1.612000000    -0.573000000     0.240000000
H    -0.737000000     0.751000000     1.103000000
C     1.590000000     0.427000000     0.218000000
H     1.438000000     1.266000000     0.893000000
C     2.844000000     0.024000000    -0.212000000
H     3.671000000     0.469000000     0.335000000
C     3.046000000    -0.859000000    -1.259000000
C     4.452000000    -1.319000000    -1.564000000
O     5.399000000    -0.626000000    -1.367000000
O     4.628000000    -2.335000000    -2.230000000
