17
-95.05655
C     2.428000000    -1.311000000    -0.920000000
H     2.809000000    -2.078000000    -1.590000000
C     1.057000000    -1.058000000    -0.896000000
H     0.357000000    -1.741000000    -1.371000000
C     0.571000000    -0.023000000    -0.095000000
C    -0.948000000     0.141000000     0.126000000
H    -1.394000000     0.920000000    -0.497000000
H    -1.459000000    -0.807000000    -0.051000000
H    -1.218000000     0.526000000     1.112000000
C     1.489000000     0.749000000     0.671000000
H     1.154000000     1.519000000     1.362000000
C     2.904000000     0.524000000     0.566000000
H     3.615000000     1.010000000     1.229000000
C     3.347000000    -0.575000000    -0.154000000
C     4.810000000    -0.980000000    -0.188000000
O     5.653000000    -0.130000000     0.076000000
O     5.099000000    -1.948000000    -0.872000000
