17
-91.09672
C     2.379000000    -1.416000000    -0.888000000
H     2.739000000    -2.346000000    -1.321000000
C     1.002000000    -1.200000000    -0.809000000
H     0.310000000    -1.795000000    -1.400000000
C     0.493000000    -0.156000000    -0.110000000
C    -1.008000000     0.075000000     0.027000000
H    -1.295000000     1.073000000    -0.310000000
H    -1.652000000    -0.666000000    -0.452000000
H    -1.205000000     0.022000000     1.099000000
C     1.367000000     0.672000000     0.606000000
H     0.955000000     1.523000000     1.143000000
C     2.725000000     0.460000000     0.529000000
H     3.434000000     1.122000000     1.020000000
C     3.242000000    -0.481000000    -0.239000000
C     4.767000000    -0.538000000    -0.456000000
O     5.537000000     0.304000000     0.029000000
O     5.311000000    -1.504000000    -0.962000000
