17
-88.85368
C     2.927000000    -1.696000000    -0.487000000
H     3.345000000    -2.458000000    -1.139000000
C     1.635000000    -1.223000000    -0.714000000
H     1.047000000    -1.524000000    -1.577000000
C     1.149000000    -0.309000000     0.219000000
C    -0.288000000     0.281000000     0.058000000
H    -0.176000000     1.296000000    -0.331000000
H    -0.869000000    -0.311000000    -0.652000000
H    -0.736000000     0.311000000     1.053000000
C     1.942000000     0.211000000     1.230000000
H     1.467000000     0.898000000     1.926000000
C     3.256000000    -0.257000000     1.400000000
H     3.849000000    -0.017000000     2.279000000
C     3.784000000    -1.207000000     0.520000000
C     5.153000000    -1.605000000     0.552000000
O     5.920000000    -1.220000000     1.387000000
O     5.634000000    -2.454000000    -0.209000000
