17
-78.36201
C     2.001000000    -0.937000000    -0.889000000
H     2.415000000    -1.665000000    -1.583000000
C     0.648000000    -0.642000000    -0.908000000
H    -0.005000000    -1.170000000    -1.598000000
C     0.069000000     0.190000000     0.061000000
C    -1.423000000     0.202000000     0.212000000
H    -2.024000000     0.710000000    -0.545000000
H    -1.754000000    -0.839000000     0.213000000
H    -1.544000000     0.599000000     1.222000000
C     0.885000000     0.690000000     1.060000000
H     0.390000000     1.259000000     1.843000000
C     2.291000000     0.513000000     1.037000000
H     2.905000000     1.054000000     1.753000000
C     2.871000000    -0.313000000     0.000000000
C     4.344000000    -0.760000000     0.211000000
O     5.103000000    -0.167000000     0.898000000
O     4.838000000    -1.518000000    -0.546000000
