17
-83.78662
C     2.419000000    -1.197000000    -0.712000000
H     3.001000000    -1.582000000    -1.545000000
C     1.072000000    -0.857000000    -0.836000000
H     0.565000000    -1.105000000    -1.765000000
C     0.379000000    -0.266000000     0.170000000
C    -1.131000000    -0.052000000     0.109000000
H    -1.714000000    -0.510000000     0.911000000
H    -1.405000000     1.005000000     0.086000000
H    -1.525000000    -0.548000000    -0.781000000
C     1.046000000    -0.125000000     1.395000000
H     0.499000000     0.218000000     2.270000000
C     2.406000000    -0.350000000     1.472000000
H     2.888000000    -0.012000000     2.386000000
C     3.106000000    -0.897000000     0.453000000
C     4.577000000    -1.261000000     0.670000000
O     5.077000000    -1.264000000     1.735000000
O     5.361000000    -1.325000000    -0.249000000
