17
-88.68242
C     2.366000000    -1.659000000    -0.492000000
H     2.810000000    -2.493000000    -1.030000000
C     1.011000000    -1.376000000    -0.662000000
H     0.367000000    -1.977000000    -1.300000000
C     0.366000000    -0.331000000     0.015000000
C    -1.104000000     0.001000000    -0.133000000
H    -1.229000000     0.957000000    -0.644000000
H    -1.504000000    -0.798000000    -0.760000000
H    -1.638000000     0.313000000     0.768000000
C     1.144000000     0.498000000     0.860000000
H     0.725000000     1.326000000     1.425000000
C     2.488000000     0.254000000     1.079000000
H     3.082000000     0.861000000     1.758000000
C     3.077000000    -0.891000000     0.458000000
C     4.416000000    -1.247000000     0.938000000
O     5.135000000    -0.365000000     1.390000000
O     4.826000000    -2.302000000     0.623000000
