17
-90.45324
C     1.929000000    -1.757000000    -1.033000000
H     2.870000000    -1.860000000    -1.567000000
C     1.304000000    -0.533000000    -0.793000000
H     1.788000000     0.415000000    -1.015000000
C     0.019000000    -0.408000000    -0.151000000
C    -0.529000000     0.977000000    -0.001000000
H    -1.308000000     1.152000000    -0.746000000
H    -1.018000000     0.941000000     0.975000000
H     0.286000000     1.703000000    -0.012000000
C    -0.639000000    -1.553000000     0.229000000
H    -1.578000000    -1.613000000     0.773000000
C     0.027000000    -2.811000000     0.050000000
H    -0.535000000    -3.693000000     0.345000000
C     1.272000000    -2.925000000    -0.607000000
C     1.597000000    -4.333000000    -0.995000000
O     0.981000000    -5.271000000    -0.532000000
O     2.632000000    -4.656000000    -1.600000000
