17
-98.14541
C     3.218000000    -1.051000000    -1.067000000
H     3.802000000    -1.240000000    -1.963000000
C     1.857000000    -0.670000000    -1.178000000
H     1.505000000    -0.477000000    -2.188000000
C     1.124000000    -0.400000000    -0.022000000
C    -0.301000000     0.175000000    -0.082000000
H    -0.864000000    -0.328000000     0.707000000
H    -0.358000000     1.264000000    -0.023000000
H    -0.644000000    -0.172000000    -1.058000000
C     1.672000000    -0.639000000     1.250000000
H     1.032000000    -0.424000000     2.101000000
C     2.925000000    -1.149000000     1.352000000
H     3.441000000    -1.316000000     2.294000000
C     3.790000000    -1.269000000     0.163000000
C     5.259000000    -1.613000000     0.284000000
O     5.770000000    -1.771000000     1.416000000
O     5.978000000    -1.585000000    -0.703000000
