17
-83.83710
C     2.292000000     0.095000000    -1.473000000
H     2.604000000     0.294000000    -2.495000000
C     0.930000000     0.152000000    -1.255000000
H     0.175000000     0.285000000    -2.025000000
C     0.416000000    -0.049000000     0.006000000
C    -1.050000000    -0.064000000     0.211000000
H    -1.477000000    -0.662000000    -0.597000000
H    -1.251000000    -0.613000000     1.133000000
H    -1.621000000     0.867000000     0.200000000
C     1.313000000    -0.182000000     1.022000000
H     0.975000000    -0.204000000     2.055000000
C     2.648000000    -0.212000000     0.774000000
H     3.215000000    -0.262000000     1.701000000
C     3.224000000    -0.142000000    -0.499000000
C     4.727000000    -0.139000000    -0.834000000
O     5.572000000    -0.725000000    -0.142000000
O     5.199000000     0.508000000    -1.713000000
