17
-93.18478
C     1.657000000     0.764000000    -1.910000000
H     1.823000000     0.667000000    -2.980000000
C     0.532000000     0.094000000    -1.444000000
H    -0.086000000    -0.421000000    -2.175000000
C     0.222000000     0.118000000    -0.098000000
C    -0.966000000    -0.628000000     0.518000000
H    -1.863000000    -0.040000000     0.311000000
H    -0.944000000    -1.660000000     0.161000000
H    -0.744000000    -0.762000000     1.578000000
C     1.104000000     0.733000000     0.725000000
H     0.977000000     0.837000000     1.800000000
C     2.214000000     1.355000000     0.260000000
H     2.875000000     1.815000000     0.990000000
C     2.553000000     1.333000000    -1.090000000
C     3.774000000     2.009000000    -1.653000000
O     4.668000000     2.356000000    -0.885000000
O     3.735000000     2.431000000    -2.813000000
