17
-96.11698
C     2.668000000    -0.314000000    -1.110000000
H     3.214000000    -0.617000000    -2.000000000
C     1.266000000    -0.138000000    -1.161000000
H     0.758000000    -0.358000000    -2.097000000
C     0.577000000     0.138000000     0.009000000
C    -0.934000000     0.100000000    -0.138000000
H    -1.329000000    -0.594000000     0.607000000
H    -1.446000000     1.064000000    -0.124000000
H    -1.192000000    -0.269000000    -1.133000000
C     1.263000000     0.409000000     1.181000000
H     0.698000000     0.596000000     2.090000000
C     2.654000000     0.252000000     1.215000000
H     3.217000000     0.552000000     2.096000000
C     3.380000000    -0.074000000     0.049000000
C     4.908000000    -0.100000000     0.055000000
O     5.436000000     0.258000000     1.053000000
O     5.555000000    -0.182000000    -1.010000000
