17
-92.55187
C     2.230000000     0.648000000    -1.077000000
H     2.798000000     0.783000000    -1.995000000
C     0.945000000     0.146000000    -1.255000000
H     0.387000000     0.079000000    -2.186000000
C     0.231000000    -0.105000000    -0.171000000
C    -1.143000000    -0.734000000    -0.317000000
H    -1.885000000     0.011000000    -0.023000000
H    -1.493000000    -1.119000000    -1.277000000
H    -1.170000000    -1.494000000     0.466000000
C     0.734000000     0.163000000     1.095000000
H     0.221000000    -0.165000000     1.995000000
C     2.024000000     0.797000000     1.262000000
H     2.393000000     1.127000000     2.230000000
C     2.787000000     0.995000000     0.156000000
C     4.168000000     1.642000000     0.185000000
O     4.616000000     2.043000000     1.241000000
O     4.771000000     1.751000000    -0.875000000
