17
-91.57210
C     2.710000000     0.311000000    -1.168000000
H     3.118000000     0.297000000    -2.176000000
C     1.328000000     0.059000000    -1.163000000
H     0.817000000     0.086000000    -2.122000000
C     0.654000000    -0.218000000     0.002000000
C    -0.762000000    -0.768000000    -0.004000000
H    -1.545000000    -0.025000000     0.163000000
H    -0.989000000    -1.235000000    -0.965000000
H    -0.783000000    -1.563000000     0.744000000
C     1.375000000    -0.073000000     1.230000000
H     0.851000000    -0.317000000     2.150000000
C     2.755000000     0.249000000     1.207000000
H     3.372000000     0.030000000     2.075000000
C     3.444000000     0.364000000    -0.044000000
C     4.983000000     0.550000000    -0.064000000
O     5.618000000     0.712000000     0.970000000
O     5.501000000     0.790000000    -1.117000000
