17
-94.68822
C     1.305000000    -2.727000000    -1.049000000
H     2.085000000    -3.111000000    -1.701000000
C     1.209000000    -1.352000000    -0.817000000
H     1.943000000    -0.681000000    -1.255000000
C     0.117000000    -0.786000000    -0.137000000
C    -0.173000000     0.680000000     0.098000000
H    -0.458000000     1.049000000    -0.889000000
H    -0.980000000     0.890000000     0.803000000
H     0.768000000     1.121000000     0.434000000
C    -0.863000000    -1.662000000     0.362000000
H    -1.616000000    -1.262000000     1.036000000
C    -0.725000000    -3.064000000     0.239000000
H    -1.422000000    -3.719000000     0.755000000
C     0.393000000    -3.618000000    -0.473000000
C     0.435000000    -5.083000000    -0.749000000
O    -0.545000000    -5.751000000    -0.690000000
O     1.518000000    -5.624000000    -0.997000000
