17
-90.07946
C     2.496000000     0.700000000    -0.363000000
H     3.129000000     1.271000000    -1.037000000
C     1.196000000     0.432000000    -0.722000000
H     0.910000000     0.886000000    -1.667000000
C     0.310000000    -0.216000000     0.173000000
C    -1.126000000    -0.459000000    -0.244000000
H    -1.341000000     0.236000000    -1.058000000
H    -1.137000000    -1.475000000    -0.644000000
H    -1.884000000    -0.345000000     0.534000000
C     0.735000000    -0.503000000     1.454000000
H     0.070000000    -0.903000000     2.215000000
C     2.094000000    -0.402000000     1.743000000
H     2.540000000    -0.877000000     2.613000000
C     2.963000000     0.239000000     0.818000000
C     4.439000000     0.403000000     1.064000000
O     4.833000000     0.391000000     2.212000000
O     5.221000000     0.823000000     0.236000000
