17
-97.92509
C     2.759000000     0.430000000    -1.538000000
H     3.114000000     0.596000000    -2.552000000
C     1.396000000     0.342000000    -1.240000000
H     0.699000000     0.248000000    -2.068000000
C     0.955000000     0.137000000     0.069000000
C    -0.491000000    -0.003000000     0.421000000
H    -1.033000000     0.919000000     0.199000000
H    -0.969000000    -0.645000000    -0.321000000
H    -0.643000000    -0.363000000     1.441000000
C     1.861000000     0.256000000     1.131000000
H     1.481000000     0.182000000     2.147000000
C     3.258000000     0.464000000     0.854000000
H     4.036000000     0.617000000     1.597000000
C     3.684000000     0.403000000    -0.497000000
C     5.152000000     0.440000000    -0.792000000
O     5.871000000    -0.021000000     0.050000000
O     5.602000000     0.885000000    -1.857000000
