17
-101.30426
C     1.167000000    -2.698000000     0.023000000
H     2.111000000    -3.058000000    -0.381000000
C     1.053000000    -1.285000000     0.018000000
H     1.827000000    -0.644000000    -0.394000000
C    -0.129000000    -0.748000000     0.600000000
C    -0.227000000     0.729000000     0.712000000
H     0.681000000     1.048000000     1.228000000
H    -0.227000000     1.218000000    -0.265000000
H    -1.093000000     1.094000000     1.268000000
C    -1.190000000    -1.614000000     1.007000000
H    -2.080000000    -1.166000000     1.441000000
C    -1.151000000    -2.978000000     0.728000000
H    -1.988000000    -3.635000000     0.950000000
C     0.044000000    -3.552000000     0.251000000
C     0.113000000    -5.032000000    -0.094000000
O    -0.641000000    -5.836000000     0.443000000
O     1.024000000    -5.350000000    -0.868000000
