17
-97.00569
C     1.796000000     2.557000000     0.190000000
H     2.281000000     3.228000000    -0.515000000
C     1.174000000     1.422000000    -0.318000000
H     1.199000000     1.160000000    -1.373000000
C     0.341000000     0.628000000     0.504000000
C    -0.342000000    -0.535000000    -0.186000000
H     0.239000000    -1.427000000     0.060000000
H    -1.288000000    -0.627000000     0.350000000
H    -0.529000000    -0.395000000    -1.253000000
C     0.208000000     0.944000000     1.874000000
H    -0.394000000     0.331000000     2.540000000
C     0.854000000     2.084000000     2.388000000
H     0.729000000     2.355000000     3.433000000
C     1.662000000     2.892000000     1.554000000
C     2.452000000     4.112000000     2.029000000
O     2.259000000     4.641000000     3.137000000
O     3.443000000     4.369000000     1.411000000
