17
-97.04802
C     1.683000000     2.178000000    -0.103000000
H     2.339000000     2.914000000    -0.560000000
C     1.050000000     1.148000000    -0.832000000
H     1.156000000     1.174000000    -1.914000000
C     0.143000000     0.302000000    -0.199000000
C    -0.792000000    -0.548000000    -1.007000000
H    -1.763000000    -0.054000000    -0.932000000
H    -0.501000000    -0.634000000    -2.056000000
H    -0.749000000    -1.570000000    -0.624000000
C    -0.062000000     0.439000000     1.202000000
H    -0.801000000    -0.235000000     1.628000000
C     0.634000000     1.387000000     1.934000000
H     0.404000000     1.440000000     2.995000000
C     1.484000000     2.317000000     1.240000000
C     2.139000000     3.381000000     2.052000000
O     1.905000000     3.370000000     3.233000000
O     2.703000000     4.300000000     1.502000000
