17
-89.74547
C     0.842000000     2.750000000     1.298000000
H     0.824000000     3.822000000     1.118000000
C     0.443000000     1.873000000     0.254000000
H     0.410000000     2.226000000    -0.774000000
C     0.118000000     0.567000000     0.505000000
C    -0.396000000    -0.283000000    -0.639000000
H    -0.058000000    -1.291000000    -0.391000000
H    -1.475000000    -0.452000000    -0.665000000
H     0.082000000     0.074000000    -1.554000000
C     0.281000000     0.092000000     1.830000000
H     0.213000000    -0.969000000     2.054000000
C     0.646000000     0.954000000     2.830000000
H     0.898000000     0.552000000     3.808000000
C     0.955000000     2.307000000     2.588000000
C     1.440000000     3.204000000     3.700000000
O     1.813000000     2.842000000     4.803000000
O     1.638000000     4.373000000     3.455000000
