17
-97.49699
C     1.749000000     1.156000000    -0.013000000
H     2.652000000     1.499000000    -0.512000000
C     0.877000000     0.285000000    -0.635000000
H     1.028000000    -0.036000000    -1.663000000
C    -0.279000000    -0.058000000     0.067000000
C    -1.263000000    -0.960000000    -0.663000000
H    -0.938000000    -1.985000000    -0.854000000
H    -2.174000000    -0.977000000    -0.061000000
H    -1.540000000    -0.547000000    -1.636000000
C    -0.548000000     0.480000000     1.310000000
H    -1.457000000     0.166000000     1.817000000
C     0.318000000     1.400000000     1.851000000
H     0.093000000     1.834000000     2.822000000
C     1.492000000     1.714000000     1.216000000
C     2.453000000     2.742000000     1.744000000
O     2.143000000     3.254000000     2.790000000
O     3.545000000     2.948000000     1.252000000
