17
-91.90092
C     1.037000000     2.450000000     0.661000000
H     1.550000000     3.351000000     0.336000000
C     0.561000000     1.490000000    -0.270000000
H     0.784000000     1.629000000    -1.324000000
C    -0.226000000     0.401000000     0.154000000
C    -0.838000000    -0.529000000    -0.734000000
H    -0.520000000    -0.142000000    -1.704000000
H    -0.309000000    -1.471000000    -0.580000000
H    -1.929000000    -0.528000000    -0.782000000
C    -0.483000000     0.305000000     1.498000000
H    -1.050000000    -0.522000000     1.917000000
C     0.089000000     1.170000000     2.432000000
H    -0.105000000     1.076000000     3.497000000
C     0.877000000     2.269000000     2.025000000
C     1.530000000     3.305000000     3.038000000
O     1.694000000     2.959000000     4.198000000
O     2.034000000     4.405000000     2.663000000
