17
-92.69459
C     1.798000000     1.389000000     0.339000000
H     2.625000000     1.928000000    -0.117000000
C     1.165000000     0.436000000    -0.391000000
H     1.529000000     0.132000000    -1.368000000
C     0.038000000    -0.225000000     0.136000000
C    -0.718000000    -1.201000000    -0.620000000
H    -0.017000000    -1.902000000    -1.077000000
H    -1.470000000    -1.669000000     0.018000000
H    -1.364000000    -0.772000000    -1.389000000
C    -0.515000000     0.208000000     1.367000000
H    -1.446000000    -0.175000000     1.778000000
C     0.161000000     1.272000000     2.053000000
H    -0.142000000     1.491000000     3.074000000
C     1.311000000     1.855000000     1.523000000
C     2.113000000     2.862000000     2.352000000
O     1.925000000     2.934000000     3.530000000
O     3.125000000     3.412000000     1.885000000
