17
-93.44684
C     2.180000000     2.382000000     0.270000000
H     2.955000000     2.877000000    -0.309000000
C     1.339000000     1.445000000    -0.370000000
H     1.495000000     1.197000000    -1.416000000
C     0.235000000     0.789000000     0.242000000
C    -0.636000000    -0.167000000    -0.577000000
H    -1.622000000     0.256000000    -0.781000000
H    -0.232000000    -0.261000000    -1.587000000
H    -0.770000000    -1.140000000    -0.100000000
C     0.081000000     1.118000000     1.627000000
H    -0.648000000     0.593000000     2.239000000
C     0.951000000     2.052000000     2.256000000
H     0.759000000     2.148000000     3.322000000
C     1.994000000     2.686000000     1.617000000
C     2.854000000     3.625000000     2.336000000
O     2.870000000     3.580000000     3.577000000
O     3.705000000     4.234000000     1.754000000
