17
-94.18661
C     1.590000000    -3.066000000    -0.984000000
H     2.404000000    -3.382000000    -1.632000000
C     1.122000000    -1.794000000    -0.862000000
H     1.627000000    -0.953000000    -1.331000000
C     0.031000000    -1.499000000    -0.038000000
C    -0.426000000    -0.070000000     0.109000000
H     0.489000000     0.508000000     0.254000000
H    -0.812000000     0.347000000    -0.824000000
H    -1.068000000     0.151000000     0.965000000
C    -0.681000000    -2.505000000     0.606000000
H    -1.633000000    -2.295000000     1.088000000
C    -0.204000000    -3.803000000     0.450000000
H    -0.685000000    -4.689000000     0.856000000
C     1.031000000    -4.138000000    -0.264000000
C     1.421000000    -5.618000000    -0.513000000
O     0.664000000    -6.495000000    -0.083000000
O     2.452000000    -5.993000000    -1.062000000
