17
-98.41186
C     1.057000000     2.213000000     0.271000000
H     1.590000000     3.037000000    -0.198000000
C     0.585000000     1.172000000    -0.544000000
H     0.675000000     1.156000000    -1.627000000
C    -0.280000000     0.228000000     0.033000000
C    -0.948000000    -0.872000000    -0.782000000
H    -1.095000000    -0.513000000    -1.803000000
H    -0.472000000    -1.848000000    -0.673000000
H    -1.954000000    -1.088000000    -0.417000000
C    -0.475000000     0.291000000     1.440000000
H    -1.072000000    -0.484000000     1.915000000
C     0.072000000     1.332000000     2.223000000
H    -0.170000000     1.430000000     3.278000000
C     0.809000000     2.324000000     1.644000000
C     1.177000000     3.540000000     2.501000000
O     1.014000000     3.480000000     3.689000000
O     1.771000000     4.437000000     1.940000000
