17
-84.54767
C     1.802000000     2.072000000     0.357000000
H     2.551000000     2.776000000     0.002000000
C     1.167000000     1.145000000    -0.443000000
H     1.544000000     1.149000000    -1.462000000
C     0.215000000     0.274000000     0.071000000
C    -0.497000000    -0.790000000    -0.734000000
H    -1.578000000    -0.638000000    -0.721000000
H    -0.088000000    -0.900000000    -1.741000000
H    -0.233000000    -1.786000000    -0.371000000
C    -0.099000000     0.367000000     1.423000000
H    -0.904000000    -0.229000000     1.845000000
C     0.467000000     1.361000000     2.227000000
H     0.091000000     1.602000000     3.219000000
C     1.447000000     2.214000000     1.701000000
C     2.162000000     3.239000000     2.547000000
O     2.211000000     3.081000000     3.725000000
O     2.979000000     3.981000000     2.107000000
