17
-98.16826
C     1.470000000     2.611000000    -0.302000000
H     1.983000000     3.031000000    -1.164000000
C     0.675000000     1.521000000    -0.375000000
H     0.381000000     1.077000000    -1.323000000
C     0.341000000     0.759000000     0.765000000
C    -0.499000000    -0.469000000     0.714000000
H     0.205000000    -1.264000000     0.966000000
H    -1.291000000    -0.426000000     1.465000000
H    -0.910000000    -0.724000000    -0.265000000
C     0.792000000     1.248000000     2.035000000
H     0.531000000     0.719000000     2.948000000
C     1.679000000     2.330000000     2.078000000
H     2.056000000     2.592000000     3.063000000
C     2.005000000     3.008000000     0.925000000
C     3.058000000     4.074000000     1.043000000
O     3.254000000     4.618000000     2.176000000
O     3.740000000     4.408000000     0.085000000
