17
-85.57976
C     1.448000000     2.294000000    -0.798000000
H     1.929000000     2.680000000    -1.693000000
C     0.738000000     1.079000000    -0.848000000
H     0.647000000     0.600000000    -1.819000000
C     0.119000000     0.524000000     0.308000000
C    -0.616000000    -0.767000000     0.212000000
H     0.083000000    -1.606000000     0.205000000
H    -1.292000000    -0.996000000     1.039000000
H    -1.285000000    -0.857000000    -0.646000000
C     0.278000000     1.129000000     1.502000000
H    -0.013000000     0.584000000     2.397000000
C     0.963000000     2.353000000     1.599000000
H     1.256000000     2.591000000     2.618000000
C     1.582000000     2.954000000     0.454000000
C     2.439000000     4.148000000     0.592000000
O     2.439000000     4.713000000     1.607000000
O     3.318000000     4.406000000    -0.237000000
