17
-99.85740
C     2.149000000     1.894000000    -1.479000000
H     2.721000000     1.938000000    -2.402000000
C     1.094000000     0.925000000    -1.392000000
H     0.873000000     0.253000000    -2.218000000
C     0.343000000     0.860000000    -0.240000000
C    -0.759000000    -0.179000000    -0.247000000
H    -1.610000000     0.058000000     0.396000000
H    -1.129000000    -0.232000000    -1.273000000
H    -0.276000000    -1.103000000     0.078000000
C     0.694000000     1.576000000     0.875000000
H     0.278000000     1.433000000     1.869000000
C     1.729000000     2.514000000     0.804000000
H     2.016000000     3.118000000     1.661000000
C     2.538000000     2.632000000    -0.349000000
C     3.652000000     3.700000000    -0.406000000
O     3.613000000     4.564000000     0.456000000
O     4.470000000     3.702000000    -1.304000000
