17
-87.66281
C     1.896000000     1.914000000    -1.046000000
H     2.448000000     2.151000000    -1.952000000
C     0.932000000     0.870000000    -1.030000000
H     0.795000000     0.251000000    -1.914000000
C     0.157000000     0.731000000     0.083000000
C    -0.901000000    -0.281000000     0.054000000
H    -0.517000000    -1.289000000     0.223000000
H    -1.519000000    -0.204000000     0.951000000
H    -1.458000000    -0.198000000    -0.882000000
C     0.285000000     1.593000000     1.161000000
H    -0.246000000     1.534000000     2.107000000
C     1.240000000     2.561000000     1.155000000
H     1.378000000     3.304000000     1.936000000
C     2.010000000     2.798000000     0.002000000
C     3.013000000     3.936000000    -0.122000000
O     3.076000000     4.806000000     0.674000000
O     3.784000000     3.891000000    -1.016000000
