17
-87.18474
C     2.151000000     1.545000000    -0.953000000
H     2.969000000     1.799000000    -1.622000000
C     1.294000000     0.440000000    -1.203000000
H     1.412000000    -0.163000000    -2.100000000
C     0.257000000     0.114000000    -0.276000000
C    -0.722000000    -0.998000000    -0.524000000
H    -0.680000000    -1.816000000     0.199000000
H    -1.672000000    -0.566000000    -0.200000000
H    -0.901000000    -1.276000000    -1.565000000
C     0.104000000     0.846000000     0.841000000
H    -0.699000000     0.664000000     1.550000000
C     0.955000000     1.934000000     1.097000000
H     0.894000000     2.616000000     1.941000000
C     1.962000000     2.340000000     0.232000000
C     2.883000000     3.522000000     0.597000000
O     2.776000000     4.177000000     1.573000000
O     3.863000000     3.783000000    -0.107000000
