17
-88.30134
C     2.002000000     2.482000000     0.148000000
H     2.730000000     2.886000000    -0.550000000
C     1.184000000     1.437000000    -0.233000000
H     1.307000000     1.003000000    -1.222000000
C     0.315000000     0.894000000     0.704000000
C    -0.543000000    -0.270000000     0.380000000
H     0.048000000    -1.120000000     0.728000000
H    -1.494000000    -0.168000000     0.907000000
H    -0.766000000    -0.430000000    -0.677000000
C     0.306000000     1.458000000     1.961000000
H    -0.456000000     1.038000000     2.612000000
C     1.215000000     2.397000000     2.356000000
H     1.257000000     2.724000000     3.392000000
C     2.089000000     3.008000000     1.408000000
C     2.998000000     4.152000000     1.733000000
O     3.153000000     4.417000000     2.881000000
O     3.848000000     4.561000000     0.947000000
