17
-96.26214
C     1.926000000     1.618000000    -0.670000000
H     2.737000000     1.841000000    -1.358000000
C     1.046000000     0.547000000    -0.812000000
H     1.130000000    -0.105000000    -1.678000000
C    -0.035000000     0.344000000     0.029000000
C    -1.046000000    -0.716000000    -0.266000000
H    -1.341000000    -0.781000000    -1.316000000
H    -0.640000000    -1.727000000    -0.186000000
H    -1.921000000    -0.771000000     0.385000000
C    -0.168000000     1.187000000     1.101000000
H    -0.973000000     1.039000000     1.817000000
C     0.689000000     2.205000000     1.351000000
H     0.553000000     2.756000000     2.278000000
C     1.761000000     2.459000000     0.455000000
C     2.746000000     3.545000000     0.623000000
O     2.624000000     4.498000000     1.417000000
O     3.762000000     3.519000000    -0.069000000
