17
-94.05549
C     1.554000000    -2.827000000    -0.084000000
H     2.533000000    -3.202000000    -0.371000000
C     1.287000000    -1.421000000    -0.166000000
H     2.126000000    -0.778000000    -0.421000000
C     0.025000000    -0.893000000     0.218000000
C    -0.368000000     0.565000000     0.139000000
H     0.496000000     1.188000000    -0.099000000
H    -1.233000000     0.719000000    -0.509000000
H    -0.823000000     0.911000000     1.070000000
C    -1.013000000    -1.823000000     0.492000000
H    -1.971000000    -1.337000000     0.658000000
C    -0.726000000    -3.223000000     0.437000000
H    -1.539000000    -3.868000000     0.761000000
C     0.570000000    -3.741000000     0.267000000
C     0.877000000    -5.236000000     0.274000000
O     0.072000000    -6.150000000     0.429000000
O     2.050000000    -5.555000000     0.076000000
