17
-90.95639
C     1.932000000     1.633000000    -0.470000000
H     2.879000000     1.726000000    -0.995000000
C     1.117000000     0.549000000    -0.577000000
H     1.342000000    -0.142000000    -1.385000000
C    -0.001000000     0.402000000     0.147000000
C    -0.913000000    -0.821000000    -0.153000000
H    -0.315000000    -1.732000000    -0.089000000
H    -1.739000000    -0.900000000     0.556000000
H    -1.452000000    -0.701000000    -1.096000000
C    -0.243000000     1.359000000     1.106000000
H    -1.162000000     1.262000000     1.678000000
C     0.588000000     2.407000000     1.289000000
H     0.366000000     3.149000000     2.051000000
C     1.676000000     2.582000000     0.483000000
C     2.547000000     3.779000000     0.657000000
O     2.269000000     4.558000000     1.550000000
O     3.500000000     3.998000000    -0.060000000
