17
-94.15767
C     1.018000000    -2.880000000     0.205000000
H     1.825000000    -3.549000000    -0.083000000
C     1.129000000    -1.496000000     0.048000000
H     1.991000000    -1.062000000    -0.453000000
C     0.066000000    -0.695000000     0.517000000
C    -0.048000000     0.788000000     0.214000000
H     0.949000000     1.036000000    -0.154000000
H    -0.861000000     1.028000000    -0.474000000
H    -0.144000000     1.365000000     1.136000000
C    -1.113000000    -1.266000000     0.983000000
H    -1.935000000    -0.591000000     1.206000000
C    -1.208000000    -2.635000000     1.050000000
H    -2.153000000    -3.084000000     1.344000000
C    -0.138000000    -3.502000000     0.627000000
C    -0.306000000    -4.964000000     0.735000000
O    -1.430000000    -5.468000000     0.696000000
O     0.676000000    -5.647000000     0.616000000
