17
-93.18702
C     2.353000000     1.037000000    -0.545000000
H     3.362000000     1.057000000    -0.949000000
C     1.383000000     0.122000000    -0.933000000
H     1.693000000    -0.547000000    -1.731000000
C     0.091000000     0.159000000    -0.402000000
C    -0.962000000    -0.755000000    -0.894000000
H    -0.675000000    -1.311000000    -1.789000000
H    -1.358000000    -1.449000000    -0.149000000
H    -1.801000000    -0.114000000    -1.172000000
C    -0.200000000     1.001000000     0.666000000
H    -1.200000000     0.944000000     1.088000000
C     0.752000000     2.024000000     1.008000000
H     0.473000000     2.822000000     1.692000000
C     2.006000000     2.101000000     0.395000000
C     3.015000000     3.131000000     0.711000000
O     2.907000000     3.852000000     1.674000000
O     3.984000000     3.371000000    -0.013000000
