17
-86.60543
C     1.269000000     2.018000000    -0.819000000
H     1.870000000     2.410000000    -1.636000000
C     0.657000000     0.738000000    -1.066000000
H     0.826000000     0.140000000    -1.958000000
C    -0.140000000     0.186000000    -0.117000000
C    -0.714000000    -1.195000000    -0.295000000
H     0.036000000    -1.956000000    -0.069000000
H    -1.580000000    -1.176000000     0.370000000
H    -1.024000000    -1.325000000    -1.334000000
C    -0.137000000     0.684000000     1.211000000
H    -0.653000000     0.216000000     2.046000000
C     0.441000000     1.910000000     1.458000000
H     0.489000000     2.324000000     2.462000000
C     1.124000000     2.600000000     0.445000000
C     1.800000000     3.919000000     0.670000000
O     1.809000000     4.375000000     1.798000000
O     2.700000000     4.380000000    -0.055000000
