17
-97.55783
C     1.109000000     2.612000000    -0.533000000
H     1.678000000     3.175000000    -1.268000000
C     0.707000000     1.327000000    -0.873000000
H     1.023000000     0.871000000    -1.807000000
C    -0.138000000     0.665000000     0.092000000
C    -0.564000000    -0.738000000    -0.155000000
H     0.011000000    -1.426000000     0.468000000
H    -1.610000000    -1.011000000    -0.001000000
H    -0.306000000    -1.035000000    -1.174000000
C    -0.541000000     1.289000000     1.277000000
H    -1.289000000     0.809000000     1.903000000
C     0.024000000     2.489000000     1.626000000
H    -0.366000000     2.984000000     2.511000000
C     0.888000000     3.134000000     0.715000000
C     1.469000000     4.475000000     1.129000000
O     1.073000000     5.134000000     2.048000000
O     2.471000000     4.850000000     0.480000000
