17
-95.15487
C     1.607000000     1.801000000    -0.753000000
H     2.180000000     2.079000000    -1.634000000
C     0.862000000     0.657000000    -0.867000000
H     0.778000000     0.115000000    -1.806000000
C     0.046000000     0.284000000     0.162000000
C    -0.916000000    -0.857000000    -0.066000000
H    -0.290000000    -1.743000000    -0.188000000
H    -1.592000000    -1.094000000     0.758000000
H    -1.448000000    -0.836000000    -1.020000000
C     0.021000000     0.988000000     1.331000000
H    -0.635000000     0.522000000     2.062000000
C     0.788000000     2.106000000     1.515000000
H     0.816000000     2.682000000     2.437000000
C     1.621000000     2.544000000     0.446000000
C     2.666000000     3.660000000     0.796000000
O     3.059000000     3.666000000     1.961000000
O     3.181000000     4.327000000    -0.075000000
