17
-97.25775
C     1.620000000     2.259000000    -1.166000000
H     2.346000000     2.430000000    -1.957000000
C     0.841000000     1.102000000    -1.099000000
H     0.974000000     0.354000000    -1.877000000
C    -0.046000000     0.915000000    -0.010000000
C    -0.769000000    -0.401000000     0.054000000
H    -1.536000000    -0.343000000     0.829000000
H    -1.120000000    -0.670000000    -0.944000000
H    -0.051000000    -1.165000000     0.360000000
C    -0.077000000     1.859000000     1.034000000
H    -0.881000000     1.817000000     1.765000000
C     0.671000000     3.039000000     0.977000000
H     0.503000000     3.806000000     1.728000000
C     1.479000000     3.231000000    -0.165000000
C     2.378000000     4.443000000    -0.085000000
O     2.139000000     5.364000000     0.635000000
O     3.431000000     4.317000000    -0.689000000
