17
-90.27821
C     1.277000000     2.546000000    -0.252000000
H     1.900000000     3.081000000    -0.965000000
C     0.750000000     1.314000000    -0.650000000
H     1.176000000     0.841000000    -1.531000000
C    -0.037000000     0.584000000     0.303000000
C    -0.511000000    -0.866000000     0.022000000
H    -1.410000000    -1.123000000     0.585000000
H    -0.762000000    -0.994000000    -1.034000000
H     0.353000000    -1.460000000     0.327000000
C    -0.355000000     1.148000000     1.553000000
H    -0.840000000     0.581000000     2.344000000
C     0.171000000     2.362000000     1.890000000
H    -0.001000000     2.775000000     2.881000000
C     1.008000000     3.111000000     0.973000000
C     1.658000000     4.404000000     1.351000000
O     1.650000000     4.838000000     2.454000000
O     2.499000000     4.902000000     0.567000000
