17
-83.39158
C     1.386000000     2.097000000    -0.807000000
H     2.176000000     2.419000000    -1.481000000
C     0.928000000     0.830000000    -1.177000000
H     1.387000000     0.320000000    -2.020000000
C    -0.057000000     0.328000000    -0.323000000
C    -0.499000000    -1.017000000    -0.557000000
H    -0.229000000    -1.170000000    -1.604000000
H    -0.042000000    -1.821000000     0.024000000
H    -1.584000000    -0.936000000    -0.467000000
C    -0.432000000     0.967000000     0.879000000
H    -1.163000000     0.502000000     1.536000000
C     0.135000000     2.232000000     1.191000000
H    -0.140000000     2.730000000     2.117000000
C     1.029000000     2.788000000     0.325000000
C     1.695000000     4.090000000     0.614000000
O     1.183000000     4.882000000     1.333000000
O     2.755000000     4.370000000     0.109000000
