17
-96.13000
C     1.661000000     2.236000000    -0.253000000
H     2.499000000     2.829000000    -0.611000000
C     1.458000000     0.874000000    -0.612000000
H     2.188000000     0.441000000    -1.291000000
C     0.382000000     0.146000000    -0.151000000
C     0.165000000    -1.256000000    -0.648000000
H    -0.850000000    -1.613000000    -0.460000000
H     0.254000000    -1.406000000    -1.726000000
H     0.794000000    -1.979000000    -0.125000000
C    -0.535000000     0.708000000     0.764000000
H    -1.352000000     0.069000000     1.088000000
C    -0.333000000     2.030000000     1.202000000
H    -1.117000000     2.416000000     1.849000000
C     0.778000000     2.786000000     0.760000000
C     1.131000000     4.163000000     1.401000000
O     0.438000000     4.633000000     2.273000000
O     2.176000000     4.653000000     1.098000000
