17
-80.07404
C     1.304000000     3.210000000    -0.303000000
H     1.919000000     3.973000000    -0.772000000
C     1.073000000     1.904000000    -0.786000000
H     1.523000000     1.615000000    -1.732000000
C     0.282000000     1.049000000    -0.046000000
C    -0.139000000    -0.270000000    -0.704000000
H    -0.327000000    -1.031000000     0.056000000
H    -1.045000000    -0.146000000    -1.300000000
H     0.712000000    -0.571000000    -1.318000000
C    -0.303000000     1.416000000     1.142000000
H    -0.870000000     0.638000000     1.647000000
C    -0.014000000     2.656000000     1.697000000
H    -0.296000000     3.076000000     2.660000000
C     0.785000000     3.543000000     0.947000000
C     0.918000000     4.942000000     1.474000000
O     0.939000000     5.156000000     2.643000000
O     1.629000000     5.704000000     0.824000000
