17
-94.46150
C     0.799000000     3.703000000     0.603000000
H     1.108000000     4.680000000     0.240000000
C     0.596000000     2.637000000    -0.309000000
H     0.511000000     2.847000000    -1.372000000
C     0.229000000     1.408000000     0.234000000
C     0.031000000     0.295000000    -0.672000000
H    -0.212000000    -0.626000000    -0.138000000
H    -0.817000000     0.476000000    -1.335000000
H     0.958000000     0.176000000    -1.236000000
C    -0.003000000     1.293000000     1.605000000
H    -0.268000000     0.338000000     2.052000000
C     0.185000000     2.336000000     2.486000000
H    -0.037000000     2.192000000     3.540000000
C     0.563000000     3.566000000     1.954000000
C     0.795000000     4.718000000     2.962000000
O     1.013000000     4.372000000     4.071000000
O     0.894000000     5.909000000     2.659000000
