17
-86.06673
C     0.113000000    -2.381000000     0.524000000
H     0.576000000    -3.187000000     1.088000000
C     0.450000000    -1.044000000     0.636000000
H     1.185000000    -0.698000000     1.358000000
C    -0.301000000    -0.081000000     0.013000000
C    -0.044000000     1.410000000     0.352000000
H    -0.460000000     1.628000000     1.337000000
H     0.963000000     1.833000000     0.385000000
H    -0.632000000     2.062000000    -0.297000000
C    -1.204000000    -0.429000000    -0.872000000
H    -1.841000000     0.337000000    -1.306000000
C    -1.499000000    -1.762000000    -1.112000000
H    -2.436000000    -2.010000000    -1.603000000
C    -0.829000000    -2.793000000    -0.458000000
C    -1.182000000    -4.216000000    -0.619000000
O    -2.019000000    -4.632000000    -1.470000000
O    -0.364000000    -5.040000000    -0.174000000
