17
-93.52634
C     1.959000000     1.264000000     0.513000000
H     2.756000000     1.868000000     0.087000000
C     1.263000000     0.366000000    -0.334000000
H     1.587000000     0.236000000    -1.364000000
C     0.153000000    -0.369000000     0.164000000
C    -0.513000000    -1.264000000    -0.775000000
H    -1.493000000    -1.487000000    -0.349000000
H    -0.503000000    -0.719000000    -1.722000000
H     0.042000000    -2.202000000    -0.844000000
C    -0.307000000    -0.187000000     1.452000000
H    -1.290000000    -0.587000000     1.687000000
C     0.315000000     0.766000000     2.291000000
H    -0.222000000     1.008000000     3.206000000
C     1.440000000     1.470000000     1.848000000
C     2.133000000     2.475000000     2.675000000
O     1.776000000     2.689000000     3.838000000
O     3.097000000     3.085000000     2.251000000
