17
-95.73779
C     2.000000000     1.617000000     1.524000000
H     2.930000000     2.176000000     1.465000000
C     1.527000000     0.947000000     0.420000000
H     2.016000000     0.979000000    -0.550000000
C     0.417000000     0.101000000     0.488000000
C     0.016000000    -0.740000000    -0.713000000
H    -0.332000000    -1.748000000    -0.477000000
H    -0.736000000    -0.159000000    -1.251000000
H     0.885000000    -0.855000000    -1.364000000
C    -0.306000000     0.078000000     1.656000000
H    -1.158000000    -0.595000000     1.709000000
C     0.125000000     0.751000000     2.799000000
H    -0.344000000     0.561000000     3.760000000
C     1.243000000     1.596000000     2.728000000
C     1.714000000     2.319000000     3.951000000
O     1.171000000     2.000000000     5.006000000
O     2.339000000     3.325000000     3.863000000
