17
-83.47119
C    -0.025000000     3.494000000     0.733000000
H    -0.691000000     4.338000000     0.570000000
C    -0.367000000     2.247000000     0.321000000
H    -1.354000000     2.077000000    -0.101000000
C     0.585000000     1.206000000     0.351000000
C     0.176000000    -0.149000000    -0.110000000
H    -0.801000000    -0.195000000    -0.595000000
H     0.850000000    -0.535000000    -0.877000000
H     0.266000000    -0.762000000     0.789000000
C     1.902000000     1.383000000     0.830000000
H     2.587000000     0.540000000     0.868000000
C     2.161000000     2.651000000     1.255000000
H     3.123000000     2.958000000     1.659000000
C     1.294000000     3.730000000     1.209000000
C     1.736000000     5.136000000     1.444000000
O     2.867000000     5.471000000     1.623000000
O     0.922000000     5.972000000     1.612000000
