17
-92.34080
C    -0.159000000     2.247000000     1.336000000
H    -0.554000000     3.259000000     1.371000000
C    -0.684000000     1.347000000     0.416000000
H    -1.438000000     1.720000000    -0.272000000
C    -0.079000000     0.099000000     0.334000000
C    -0.693000000    -0.872000000    -0.702000000
H    -1.282000000    -1.645000000    -0.205000000
H    -1.311000000    -0.305000000    -1.401000000
H     0.100000000    -1.362000000    -1.271000000
C     0.996000000    -0.242000000     1.107000000
H     1.474000000    -1.198000000     0.912000000
C     1.579000000     0.642000000     2.030000000
H     2.547000000     0.453000000     2.487000000
C     0.987000000     1.897000000     2.052000000
C     1.631000000     2.963000000     2.912000000
O     2.815000000     2.954000000     3.105000000
O     0.996000000     3.995000000     3.037000000
