17
-94.28982
C     0.189000000     2.903000000    -0.006000000
H    -0.419000000     3.718000000    -0.391000000
C    -0.171000000     1.583000000    -0.229000000
H    -1.080000000     1.301000000    -0.754000000
C     0.624000000     0.597000000     0.270000000
C     0.238000000    -0.862000000     0.094000000
H     0.051000000    -1.116000000    -0.951000000
H     1.042000000    -1.528000000     0.417000000
H    -0.539000000    -1.134000000     0.812000000
C     1.791000000     0.867000000     0.925000000
H     2.412000000     0.060000000     1.307000000
C     2.196000000     2.218000000     1.045000000
H     3.106000000     2.366000000     1.619000000
C     1.388000000     3.254000000     0.616000000
C     1.790000000     4.661000000     0.931000000
O     2.982000000     4.890000000     0.993000000
O     1.004000000     5.569000000     0.797000000
