17
-91.96432
C    -0.470000000     2.843000000    -0.674000000
H    -1.229000000     3.609000000    -0.811000000
C    -0.780000000     1.438000000    -0.854000000
H    -1.800000000     1.131000000    -1.070000000
C     0.185000000     0.535000000    -0.509000000
C    -0.058000000    -1.019000000    -0.541000000
H     0.653000000    -1.473000000    -1.234000000
H     0.122000000    -1.505000000     0.421000000
H    -1.094000000    -1.212000000    -0.828000000
C     1.434000000     0.923000000    -0.086000000
H     2.078000000     0.082000000     0.157000000
C     1.794000000     2.234000000    -0.061000000
H     2.782000000     2.534000000     0.277000000
C     0.852000000     3.229000000    -0.304000000
C     1.252000000     4.707000000    -0.266000000
O     2.384000000     5.064000000    -0.390000000
O     0.408000000     5.538000000     0.018000000
