17
-95.49530
C     1.167000000    -2.308000000     0.731000000
H     1.875000000    -2.935000000     1.268000000
C     1.054000000    -0.987000000     1.058000000
H     1.736000000    -0.571000000     1.794000000
C     0.003000000    -0.187000000     0.527000000
C     0.060000000     1.399000000     0.721000000
H    -0.960000000     1.776000000     0.819000000
H     0.599000000     1.652000000     1.636000000
H     0.528000000     1.831000000    -0.166000000
C    -0.986000000    -0.773000000    -0.311000000
H    -1.759000000    -0.210000000    -0.829000000
C    -0.901000000    -2.168000000    -0.497000000
H    -1.654000000    -2.656000000    -1.111000000
C     0.149000000    -2.904000000     0.033000000
C     0.247000000    -4.398000000    -0.363000000
O    -0.530000000    -4.846000000    -1.185000000
O     1.095000000    -5.096000000     0.143000000
