17
-86.75831
C    -0.276000000     2.500000000    -0.573000000
H    -1.009000000     3.282000000    -0.753000000
C    -0.672000000     1.187000000    -0.524000000
H    -1.661000000     0.845000000    -0.818000000
C     0.254000000     0.241000000    -0.163000000
C    -0.095000000    -1.207000000    -0.343000000
H    -1.154000000    -1.396000000    -0.530000000
H     0.329000000    -1.518000000    -1.300000000
H     0.297000000    -1.887000000     0.417000000
C     1.529000000     0.572000000     0.247000000
H     2.171000000    -0.239000000     0.583000000
C     1.914000000     1.909000000     0.256000000
H     2.992000000     2.013000000     0.355000000
C     0.990000000     2.924000000    -0.105000000
C     1.464000000     4.370000000    -0.063000000
O     2.434000000     4.667000000     0.593000000
O     0.692000000     5.277000000    -0.309000000
