17
-99.17779
C    -0.597000000     3.213000000    -0.299000000
H    -1.362000000     3.982000000    -0.372000000
C    -0.981000000     1.856000000    -0.470000000
H    -1.999000000     1.610000000    -0.760000000
C     0.002000000     0.853000000    -0.350000000
C    -0.332000000    -0.660000000    -0.411000000
H     0.357000000    -1.329000000    -0.930000000
H    -0.338000000    -0.994000000     0.629000000
H    -1.291000000    -0.819000000    -0.908000000
C     1.317000000     1.225000000     0.002000000
H     2.077000000     0.447000000    -0.009000000
C     1.714000000     2.581000000     0.004000000
H     2.737000000     2.862000000     0.242000000
C     0.741000000     3.612000000    -0.083000000
C     1.144000000     5.049000000    -0.256000000
O     2.352000000     5.310000000    -0.285000000
O     0.309000000     5.957000000    -0.280000000
