17
-89.24893
C    -0.307000000     2.721000000    -0.336000000
H    -0.869000000     3.644000000    -0.461000000
C    -0.741000000     1.380000000    -0.440000000
H    -1.797000000     1.174000000    -0.597000000
C     0.134000000     0.355000000    -0.277000000
C    -0.389000000    -1.005000000    -0.235000000
H     0.289000000    -1.770000000    -0.620000000
H    -0.751000000    -1.349000000     0.736000000
H    -1.258000000    -0.952000000    -0.894000000
C     1.482000000     0.622000000     0.022000000
H     2.139000000    -0.191000000     0.318000000
C     1.901000000     1.955000000     0.125000000
H     2.966000000     2.139000000     0.241000000
C     1.015000000     2.993000000    -0.117000000
C     1.599000000     4.362000000     0.029000000
O     2.748000000     4.469000000     0.254000000
O     0.889000000     5.287000000    -0.278000000
