17
-89.46654
C    -1.079000000     1.834000000     1.290000000
H    -1.948000000     2.485000000     1.346000000
C    -1.034000000     0.984000000     0.187000000
H    -1.696000000     1.066000000    -0.671000000
C    -0.003000000     0.082000000     0.030000000
C     0.123000000    -0.766000000    -1.237000000
H     0.570000000    -1.732000000    -0.994000000
H    -0.745000000    -0.871000000    -1.891000000
H     0.789000000    -0.137000000    -1.832000000
C     1.006000000     0.046000000     0.957000000
H     1.791000000    -0.691000000     0.808000000
C     1.029000000     0.900000000     2.067000000
H     1.871000000     0.891000000     2.755000000
C    -0.054000000     1.839000000     2.243000000
C    -0.154000000     2.869000000     3.293000000
O     0.464000000     2.770000000     4.339000000
O    -0.758000000     3.902000000     3.148000000
