17
-89.25859
C     0.749000000    -2.396000000     0.703000000
H     1.347000000    -3.072000000     1.308000000
C     0.908000000    -0.967000000     0.829000000
H     1.593000000    -0.572000000     1.574000000
C     0.059000000    -0.055000000     0.197000000
C     0.154000000     1.437000000     0.413000000
H     0.611000000     1.964000000    -0.427000000
H    -0.829000000     1.880000000     0.587000000
H     0.650000000     1.589000000     1.374000000
C    -0.740000000    -0.537000000    -0.782000000
H    -1.392000000     0.187000000    -1.264000000
C    -0.735000000    -1.895000000    -1.169000000
H    -1.341000000    -2.111000000    -2.045000000
C     0.031000000    -2.834000000    -0.426000000
C    -0.026000000    -4.285000000    -0.852000000
O    -1.003000000    -4.578000000    -1.510000000
O     0.783000000    -5.105000000    -0.578000000
