17
-90.67427
C    -0.213000000     2.351000000     0.388000000
H    -0.899000000     3.195000000     0.375000000
C    -0.722000000     1.087000000     0.144000000
H    -1.709000000     1.174000000    -0.302000000
C     0.082000000    -0.094000000     0.047000000
C    -0.444000000    -1.443000000    -0.280000000
H    -1.426000000    -1.313000000    -0.740000000
H     0.140000000    -1.917000000    -1.071000000
H    -0.416000000    -2.059000000     0.621000000
C     1.397000000     0.036000000     0.359000000
H     2.066000000    -0.792000000     0.577000000
C     1.858000000     1.341000000     0.718000000
H     2.868000000     1.411000000     1.114000000
C     1.090000000     2.498000000     0.783000000
C     1.685000000     3.737000000     1.367000000
O     2.841000000     3.800000000     1.730000000
O     0.971000000     4.753000000     1.504000000
