17
-94.43615
C    -0.770000000     2.272000000     0.942000000
H    -1.620000000     2.951000000     0.932000000
C    -0.755000000     1.166000000     0.001000000
H    -1.582000000     1.110000000    -0.703000000
C     0.092000000     0.086000000     0.192000000
C    -0.146000000    -1.212000000    -0.602000000
H     0.586000000    -1.177000000    -1.411000000
H     0.134000000    -2.058000000     0.029000000
H    -1.154000000    -1.312000000    -1.009000000
C     1.108000000     0.150000000     1.115000000
H     1.764000000    -0.711000000     1.217000000
C     1.153000000     1.252000000     2.015000000
H     1.932000000     1.274000000     2.773000000
C     0.156000000     2.252000000     1.971000000
C     0.153000000     3.419000000     2.936000000
O     1.060000000     3.587000000     3.720000000
O    -0.681000000     4.298000000     2.813000000
