17
-92.16625
C    -0.528000000     2.049000000     1.229000000
H    -1.214000000     2.881000000     1.362000000
C    -0.816000000     1.118000000     0.268000000
H    -1.732000000     1.249000000    -0.302000000
C     0.073000000     0.055000000     0.105000000
C    -0.201000000    -1.047000000    -0.849000000
H    -0.119000000    -2.006000000    -0.333000000
H    -1.233000000    -1.044000000    -1.206000000
H     0.559000000    -0.997000000    -1.631000000
C     1.218000000    -0.036000000     0.856000000
H     1.914000000    -0.812000000     0.550000000
C     1.472000000     0.869000000     1.873000000
H     2.439000000     0.780000000     2.361000000
C     0.605000000     1.943000000     2.075000000
C     0.822000000     3.042000000     3.135000000
O     1.593000000     2.910000000     4.053000000
O     0.362000000     4.144000000     2.987000000
