17
-97.87512
C     0.835000000    -2.041000000     0.333000000
H     1.562000000    -2.760000000     0.700000000
C     0.792000000    -0.696000000     0.730000000
H     1.372000000    -0.357000000     1.584000000
C    -0.092000000     0.174000000     0.068000000
C    -0.209000000     1.635000000     0.485000000
H    -1.267000000     1.899000000     0.529000000
H     0.253000000     1.731000000     1.470000000
H     0.235000000     2.343000000    -0.218000000
C    -0.962000000    -0.309000000    -0.918000000
H    -1.607000000     0.341000000    -1.503000000
C    -0.888000000    -1.636000000    -1.376000000
H    -1.621000000    -2.134000000    -2.006000000
C     0.014000000    -2.513000000    -0.682000000
C     0.078000000    -3.934000000    -1.176000000
O    -0.641000000    -4.331000000    -2.106000000
O     0.668000000    -4.715000000    -0.471000000
