17
-94.89676
C    -0.743000000     2.314000000     1.426000000
H    -1.228000000     3.277000000     1.564000000
C    -1.096000000     1.385000000     0.398000000
H    -1.940000000     1.570000000    -0.262000000
C    -0.219000000     0.319000000     0.125000000
C    -0.579000000    -0.755000000    -0.903000000
H    -1.535000000    -0.515000000    -1.374000000
H     0.130000000    -0.859000000    -1.727000000
H    -0.716000000    -1.683000000    -0.343000000
C     0.868000000     0.069000000     0.979000000
H     1.519000000    -0.795000000     0.876000000
C     1.057000000     0.853000000     2.046000000
H     1.874000000     0.535000000     2.689000000
C     0.284000000     2.010000000     2.300000000
C     0.518000000     2.895000000     3.515000000
O     1.570000000     2.710000000     4.134000000
O    -0.156000000     3.883000000     3.841000000
