17
-94.33705
C    -0.960000000     1.831000000     2.299000000
H    -1.683000000     2.638000000     2.383000000
C    -0.826000000     1.149000000     1.094000000
H    -1.520000000     1.376000000     0.289000000
C     0.130000000     0.200000000     0.854000000
C     0.175000000    -0.668000000    -0.314000000
H     0.882000000    -1.500000000    -0.301000000
H    -0.783000000    -1.167000000    -0.475000000
H     0.428000000    -0.044000000    -1.173000000
C     0.976000000    -0.104000000     1.947000000
H     1.797000000    -0.791000000     1.756000000
C     0.893000000     0.570000000     3.170000000
H     1.611000000     0.374000000     3.962000000
C    -0.187000000     1.464000000     3.383000000
C    -0.239000000     2.336000000     4.620000000
O     0.484000000     2.150000000     5.581000000
O    -0.838000000     3.387000000     4.531000000
