17
-96.51219
C    -1.115000000     2.953000000     2.208000000
H    -1.884000000     3.699000000     2.391000000
C    -1.058000000     2.299000000     0.982000000
H    -1.779000000     2.496000000     0.192000000
C    -0.108000000     1.285000000     0.807000000
C     0.152000000     0.825000000    -0.604000000
H    -0.845000000     0.667000000    -1.019000000
H     0.757000000     1.535000000    -1.172000000
H     0.614000000    -0.159000000    -0.703000000
C     0.617000000     0.888000000     1.857000000
H     1.344000000     0.085000000     1.766000000
C     0.507000000     1.559000000     3.134000000
H     1.078000000     1.146000000     3.961000000
C    -0.438000000     2.512000000     3.322000000
C    -0.615000000     3.114000000     4.702000000
O    -0.154000000     2.485000000     5.681000000
O    -1.190000000     4.189000000     4.861000000
