17
-93.16250
C    -1.298000000     2.751000000     2.105000000
H    -1.768000000     3.730000000     2.052000000
C    -1.157000000     1.944000000     0.961000000
H    -1.583000000     2.333000000     0.039000000
C    -0.403000000     0.776000000     1.060000000
C    -0.003000000     0.037000000    -0.217000000
H     0.583000000     0.637000000    -0.917000000
H     0.620000000    -0.847000000    -0.067000000
H    -0.869000000    -0.375000000    -0.740000000
C     0.039000000     0.307000000     2.269000000
H     0.497000000    -0.676000000     2.346000000
C    -0.095000000     1.062000000     3.415000000
H     0.299000000     0.692000000     4.359000000
C    -0.722000000     2.360000000     3.349000000
C    -0.717000000     3.193000000     4.567000000
O     0.041000000     2.921000000     5.468000000
O    -1.297000000     4.238000000     4.587000000
