17
-87.17252
C    -0.770000000     1.750000000     2.084000000
H    -1.486000000     2.470000000     2.473000000
C    -0.955000000     1.084000000     0.869000000
H    -1.839000000     1.376000000     0.307000000
C     0.023000000     0.182000000     0.392000000
C    -0.247000000    -0.526000000    -0.912000000
H    -1.265000000    -0.920000000    -0.874000000
H    -0.038000000     0.088000000    -1.791000000
H     0.350000000    -1.439000000    -0.960000000
C     1.223000000    -0.072000000     1.065000000
H     1.920000000    -0.821000000     0.699000000
C     1.430000000     0.572000000     2.321000000
H     2.327000000     0.511000000     2.931000000
C     0.444000000     1.529000000     2.779000000
C     0.784000000     2.346000000     4.021000000
O     1.806000000     2.317000000     4.647000000
O     0.078000000     3.280000000     4.223000000
