17
-89.38801
C    -0.659000000     2.546000000     1.450000000
H    -1.132000000     3.524000000     1.441000000
C    -0.810000000     1.633000000     0.390000000
H    -1.548000000     1.811000000    -0.389000000
C    -0.404000000     0.312000000     0.583000000
C    -0.395000000    -0.711000000    -0.552000000
H    -0.656000000    -0.217000000    -1.491000000
H     0.545000000    -1.241000000    -0.717000000
H    -1.140000000    -1.492000000    -0.387000000
C     0.365000000    -0.061000000     1.672000000
H     0.817000000    -1.050000000     1.679000000
C     0.666000000     0.873000000     2.640000000
H     1.243000000     0.614000000     3.524000000
C     0.192000000     2.233000000     2.542000000
C     0.704000000     3.228000000     3.613000000
O     1.702000000     2.964000000     4.211000000
O     0.247000000     4.364000000     3.768000000
