17
-97.07837
C     0.153000000    -2.515000000     0.284000000
H     0.710000000    -3.293000000     0.799000000
C     0.454000000    -1.214000000     0.616000000
H     1.201000000    -0.998000000     1.375000000
C    -0.173000000    -0.131000000    -0.063000000
C     0.035000000     1.303000000     0.233000000
H     0.990000000     1.592000000    -0.212000000
H    -0.733000000     1.952000000    -0.194000000
H     0.161000000     1.554000000     1.288000000
C    -1.106000000    -0.399000000    -1.086000000
H    -1.561000000     0.386000000    -1.684000000
C    -1.512000000    -1.728000000    -1.311000000
H    -2.223000000    -1.952000000    -2.102000000
C    -0.839000000    -2.749000000    -0.626000000
C    -0.997000000    -4.215000000    -1.081000000
O    -1.458000000    -4.431000000    -2.202000000
O    -0.539000000    -5.121000000    -0.445000000
