17
-92.51067
C    -0.184000000     2.155000000     2.387000000
H    -0.739000000     3.015000000     2.752000000
C    -0.608000000     1.274000000     1.387000000
H    -1.593000000     1.401000000     0.945000000
C     0.210000000     0.321000000     0.843000000
C    -0.239000000    -0.631000000    -0.306000000
H    -1.007000000    -1.267000000     0.139000000
H    -0.640000000    -0.161000000    -1.207000000
H     0.628000000    -1.160000000    -0.708000000
C     1.525000000     0.296000000     1.248000000
H     2.109000000    -0.459000000     0.728000000
C     2.016000000     1.166000000     2.187000000
H     3.080000000     1.075000000     2.395000000
C     1.210000000     2.175000000     2.744000000
C     1.727000000     3.204000000     3.730000000
O     2.565000000     3.047000000     4.596000000
O     1.191000000     4.316000000     3.632000000
