17
-98.75816
C     0.160000000     2.121000000     1.492000000
H    -0.364000000     3.011000000     1.831000000
C    -0.568000000     1.202000000     0.711000000
H    -1.594000000     1.469000000     0.471000000
C     0.082000000     0.079000000     0.194000000
C    -0.508000000    -0.950000000    -0.672000000
H     0.097000000    -1.853000000    -0.782000000
H    -1.553000000    -1.103000000    -0.394000000
H    -0.617000000    -0.565000000    -1.688000000
C     1.433000000    -0.067000000     0.465000000
H     1.983000000    -0.914000000     0.065000000
C     2.111000000     0.845000000     1.244000000
H     3.164000000     0.652000000     1.434000000
C     1.490000000     1.878000000     1.884000000
C     2.210000000     2.790000000     2.819000000
O     3.248000000     2.509000000     3.411000000
O     1.656000000     3.886000000     2.935000000
