17
-95.31431
C    -0.316000000    -2.681000000     0.688000000
H    -0.016000000    -3.473000000     1.369000000
C     0.325000000    -1.422000000     0.725000000
H     1.177000000    -1.339000000     1.394000000
C    -0.138000000    -0.358000000     0.008000000
C     0.557000000     0.947000000     0.140000000
H     1.014000000     1.077000000     1.123000000
H     1.289000000     1.161000000    -0.642000000
H    -0.193000000     1.740000000     0.084000000
C    -1.240000000    -0.488000000    -0.791000000
H    -1.593000000     0.393000000    -1.322000000
C    -1.884000000    -1.714000000    -0.921000000
H    -2.719000000    -1.733000000    -1.616000000
C    -1.420000000    -2.875000000    -0.197000000
C    -2.080000000    -4.174000000    -0.239000000
O    -2.830000000    -4.399000000    -1.170000000
O    -1.787000000    -5.116000000     0.515000000
