17
-89.16355
C     0.103000000     2.841000000     1.777000000
H    -0.437000000     3.740000000     2.061000000
C    -0.621000000     1.900000000     1.019000000
H    -1.614000000     2.152000000     0.655000000
C    -0.061000000     0.631000000     0.746000000
C    -0.813000000    -0.374000000    -0.030000000
H    -1.874000000    -0.136000000    -0.135000000
H    -0.302000000    -0.508000000    -0.985000000
H    -0.616000000    -1.317000000     0.484000000
C     1.173000000     0.267000000     1.317000000
H     1.692000000    -0.668000000     1.121000000
C     1.875000000     1.145000000     2.061000000
H     2.825000000     0.918000000     2.538000000
C     1.336000000     2.437000000     2.375000000
C     2.082000000     3.351000000     3.231000000
O     2.951000000     2.925000000     3.939000000
O     2.015000000     4.560000000     3.086000000
