17
-93.91783
C     0.911000000     2.226000000     2.390000000
H     0.396000000     3.090000000     2.802000000
C     0.173000000     1.344000000     1.564000000
H    -0.912000000     1.411000000     1.565000000
C     0.829000000     0.277000000     0.919000000
C     0.008000000    -0.710000000     0.115000000
H    -0.642000000    -1.331000000     0.734000000
H    -0.636000000    -0.071000000    -0.493000000
H     0.539000000    -1.354000000    -0.590000000
C     2.203000000     0.145000000     0.990000000
H     2.789000000    -0.606000000     0.466000000
C     2.915000000     1.052000000     1.751000000
H     3.989000000     0.895000000     1.815000000
C     2.302000000     2.018000000     2.495000000
C     3.056000000     2.821000000     3.493000000
O     4.259000000     2.620000000     3.560000000
O     2.644000000     3.897000000     4.024000000
