17
-85.26365
C     0.245000000     2.097000000     2.104000000
H    -0.267000000     2.994000000     2.444000000
C    -0.521000000     1.226000000     1.332000000
H    -1.566000000     1.392000000     1.084000000
C     0.123000000     0.166000000     0.699000000
C    -0.530000000    -0.765000000    -0.207000000
H    -1.320000000    -1.269000000     0.353000000
H    -1.080000000    -0.214000000    -0.973000000
H     0.085000000    -1.487000000    -0.748000000
C     1.509000000     0.026000000     0.924000000
H     1.995000000    -0.811000000     0.428000000
C     2.225000000     0.872000000     1.807000000
H     3.283000000     0.665000000     1.945000000
C     1.596000000     1.911000000     2.445000000
C     2.271000000     2.838000000     3.363000000
O     3.485000000     2.924000000     3.332000000
O     1.612000000     3.754000000     3.700000000
