17
-89.12163
C    -0.146000000     2.005000000     0.680000000
H    -0.754000000     2.904000000     0.741000000
C    -0.722000000     0.888000000     0.123000000
H    -1.774000000     0.837000000    -0.144000000
C     0.099000000    -0.201000000    -0.138000000
C    -0.671000000    -1.444000000    -0.520000000
H     0.077000000    -2.223000000    -0.678000000
H    -1.330000000    -1.709000000     0.310000000
H    -1.269000000    -1.247000000    -1.412000000
C     1.438000000    -0.186000000     0.315000000
H     2.061000000    -1.070000000     0.213000000
C     1.964000000     0.901000000     1.023000000
H     2.947000000     0.797000000     1.475000000
C     1.202000000     2.061000000     1.116000000
C     1.761000000     3.243000000     1.829000000
O     2.963000000     3.331000000     1.795000000
O     1.131000000     4.238000000     2.126000000
