17
-91.69056
C     0.283000000     2.734000000     1.297000000
H    -0.365000000     3.595000000     1.439000000
C    -0.248000000     1.688000000     0.538000000
H    -1.254000000     1.771000000     0.136000000
C     0.457000000     0.479000000     0.325000000
C    -0.308000000    -0.623000000    -0.341000000
H     0.056000000    -1.631000000    -0.132000000
H    -1.360000000    -0.776000000    -0.090000000
H    -0.085000000    -0.432000000    -1.393000000
C     1.699000000     0.328000000     0.939000000
H     2.289000000    -0.559000000     0.725000000
C     2.187000000     1.345000000     1.717000000
H     3.223000000     1.209000000     2.016000000
C     1.533000000     2.515000000     1.907000000
C     2.330000000     3.598000000     2.632000000
O     3.536000000     3.649000000     2.525000000
O     1.790000000     4.451000000     3.352000000
