17
-90.85220
C     0.277000000     2.114000000     1.712000000
H    -0.338000000     2.932000000     2.078000000
C    -0.436000000     1.141000000     0.933000000
H    -1.512000000     1.202000000     0.792000000
C     0.235000000     0.007000000     0.401000000
C    -0.524000000    -0.978000000    -0.492000000
H     0.122000000    -1.620000000    -1.095000000
H    -1.169000000    -1.525000000     0.200000000
H    -1.079000000    -0.335000000    -1.177000000
C     1.589000000    -0.218000000     0.654000000
H     2.171000000    -1.065000000     0.298000000
C     2.240000000     0.775000000     1.424000000
H     3.312000000     0.649000000     1.554000000
C     1.658000000     1.937000000     1.958000000
C     2.445000000     3.035000000     2.582000000
O     3.430000000     2.765000000     3.192000000
O     1.874000000     4.105000000     2.784000000
