17
-88.35667
C     0.124000000     3.229000000     1.039000000
H    -0.439000000     4.159000000     1.007000000
C    -0.537000000     2.093000000     0.646000000
H    -1.553000000     2.245000000     0.290000000
C     0.156000000     0.905000000     0.610000000
C    -0.450000000    -0.289000000     0.072000000
H    -0.429000000    -1.084000000     0.820000000
H    -1.515000000    -0.069000000    -0.027000000
H     0.082000000    -0.661000000    -0.806000000
C     1.455000000     0.871000000     1.025000000
H     2.010000000    -0.058000000     0.924000000
C     2.053000000     1.983000000     1.545000000
H     3.101000000     1.966000000     1.832000000
C     1.380000000     3.225000000     1.567000000
C     2.058000000     4.504000000     1.895000000
O     3.268000000     4.612000000     1.735000000
O     1.391000000     5.503000000     1.963000000
