17
-89.86976
C    -0.214000000     2.789000000     0.984000000
H    -0.755000000     3.731000000     1.009000000
C    -0.565000000     1.723000000     0.124000000
H    -1.265000000     1.838000000    -0.700000000
C    -0.023000000     0.416000000     0.337000000
C    -0.605000000    -0.733000000    -0.483000000
H    -1.642000000    -0.535000000    -0.760000000
H     0.135000000    -0.950000000    -1.256000000
H    -0.719000000    -1.662000000     0.079000000
C     0.974000000     0.185000000     1.295000000
H     1.521000000    -0.753000000     1.341000000
C     1.364000000     1.292000000     2.082000000
H     2.125000000     1.153000000     2.846000000
C     0.827000000     2.576000000     1.904000000
C     1.328000000     3.606000000     2.807000000
O     2.007000000     3.392000000     3.812000000
O     1.190000000     4.717000000     2.428000000
