17
-92.69341
C    -0.247000000     2.822000000     1.010000000
H    -0.674000000     3.805000000     0.821000000
C    -0.695000000     1.759000000     0.257000000
H    -1.488000000     1.936000000    -0.466000000
C    -0.173000000     0.482000000     0.470000000
C    -0.679000000    -0.678000000    -0.396000000
H     0.177000000    -1.317000000    -0.621000000
H    -1.393000000    -1.230000000     0.219000000
H    -1.310000000    -0.294000000    -1.200000000
C     0.690000000     0.279000000     1.496000000
H     0.986000000    -0.759000000     1.630000000
C     1.113000000     1.395000000     2.261000000
H     1.852000000     1.195000000     3.033000000
C     0.657000000     2.654000000     2.020000000
C     1.351000000     3.762000000     2.758000000
O     2.103000000     3.505000000     3.670000000
O     1.054000000     4.925000000     2.557000000
