17
-93.25909
C    -0.191000000     2.820000000     1.936000000
H    -0.847000000     3.687000000     1.925000000
C    -0.597000000     1.705000000     1.093000000
H    -1.493000000     1.728000000     0.477000000
C     0.213000000     0.534000000     1.033000000
C    -0.094000000    -0.634000000     0.146000000
H     0.797000000    -0.828000000    -0.455000000
H    -0.316000000    -1.535000000     0.721000000
H    -0.969000000    -0.498000000    -0.492000000
C     1.477000000     0.475000000     1.638000000
H     2.087000000    -0.425000000     1.633000000
C     1.815000000     1.659000000     2.371000000
H     2.739000000     1.644000000     2.945000000
C     1.069000000     2.831000000     2.554000000
C     1.646000000     4.026000000     3.357000000
O     2.779000000     3.952000000     3.812000000
O     1.010000000     5.040000000     3.575000000
