17
-96.09845
C     0.231000000     2.300000000     1.945000000
H    -0.235000000     3.232000000     2.256000000
C    -0.507000000     1.351000000     1.210000000
H    -1.547000000     1.524000000     0.944000000
C     0.074000000     0.180000000     0.702000000
C    -0.775000000    -0.789000000    -0.049000000
H    -1.372000000    -1.360000000     0.665000000
H    -1.441000000    -0.359000000    -0.800000000
H    -0.162000000    -1.445000000    -0.670000000
C     1.391000000    -0.090000000     1.052000000
H     1.702000000    -1.101000000     0.805000000
C     2.105000000     0.785000000     1.935000000
H     3.084000000     0.591000000     2.365000000
C     1.584000000     2.052000000     2.329000000
C     2.359000000     3.034000000     3.228000000
O     3.548000000     2.881000000     3.509000000
O     1.757000000     3.969000000     3.684000000
