17
-87.08933
C     0.428000000    -2.664000000     0.186000000
H     1.076000000    -3.434000000     0.595000000
C     0.793000000    -1.342000000     0.371000000
H     1.748000000    -1.144000000     0.851000000
C    -0.151000000    -0.378000000     0.232000000
C     0.172000000     1.075000000     0.747000000
H    -0.725000000     1.692000000     0.665000000
H     0.411000000     0.997000000     1.809000000
H     1.031000000     1.610000000     0.336000000
C    -1.382000000    -0.695000000    -0.426000000
H    -2.076000000     0.092000000    -0.709000000
C    -1.715000000    -2.014000000    -0.664000000
H    -2.689000000    -2.249000000    -1.085000000
C    -0.774000000    -3.039000000    -0.382000000
C    -1.001000000    -4.495000000    -0.682000000
O    -2.078000000    -4.802000000    -1.069000000
O    -0.109000000    -5.274000000    -0.658000000
