17
-98.17125
C    -0.398000000     2.717000000     0.973000000
H    -0.641000000     3.732000000     0.670000000
C    -0.808000000     1.688000000     0.144000000
H    -1.448000000     1.920000000    -0.703000000
C    -0.426000000     0.416000000     0.353000000
C    -0.819000000    -0.731000000    -0.637000000
H    -1.827000000    -1.102000000    -0.441000000
H    -0.882000000    -0.349000000    -1.658000000
H    -0.062000000    -1.512000000    -0.541000000
C     0.446000000     0.061000000     1.398000000
H     0.844000000    -0.932000000     1.587000000
C     0.820000000     1.092000000     2.267000000
H     1.536000000     0.895000000     3.061000000
C     0.393000000     2.420000000     2.079000000
C     0.904000000     3.569000000     3.000000000
O     1.663000000     3.241000000     3.894000000
O     0.568000000     4.723000000     2.868000000
