17
-96.16649
C    -0.648000000     2.442000000     0.911000000
H    -1.321000000     3.289000000     0.800000000
C    -0.933000000     1.312000000     0.168000000
H    -1.883000000     1.181000000    -0.344000000
C    -0.197000000     0.123000000     0.336000000
C    -0.772000000    -1.145000000    -0.236000000
H     0.024000000    -1.887000000    -0.135000000
H    -1.728000000    -1.348000000     0.251000000
H    -1.000000000    -1.099000000    -1.303000000
C     0.994000000     0.171000000     1.047000000
H     1.616000000    -0.718000000     1.004000000
C     1.374000000     1.369000000     1.765000000
H     2.264000000     1.366000000     2.389000000
C     0.481000000     2.483000000     1.722000000
C     0.877000000     3.794000000     2.417000000
O     1.876000000     3.796000000     3.155000000
O     0.202000000     4.801000000     2.349000000
