17
-99.82772
C     0.927000000     3.377000000    -0.040000000
H     1.111000000     4.229000000    -0.689000000
C     0.638000000     2.096000000    -0.538000000
H     0.555000000     1.913000000    -1.607000000
C     0.470000000     1.032000000     0.310000000
C     0.097000000    -0.327000000    -0.271000000
H     0.887000000    -1.033000000    -0.005000000
H    -0.899000000    -0.699000000    -0.022000000
H     0.122000000    -0.309000000    -1.362000000
C     0.530000000     1.121000000     1.670000000
H     0.478000000     0.231000000     2.292000000
C     0.820000000     2.373000000     2.177000000
H     0.934000000     2.596000000     3.235000000
C     0.988000000     3.521000000     1.353000000
C     1.370000000     4.800000000     1.993000000
O     1.623000000     4.858000000     3.214000000
O     1.637000000     5.706000000     1.216000000
