17
-97.91319
C     1.072000000     2.269000000     0.022000000
H     0.941000000     3.336000000    -0.139000000
C    -0.027000000     1.454000000    -0.345000000
H    -0.932000000     1.885000000    -0.767000000
C     0.092000000     0.145000000     0.089000000
C    -0.946000000    -0.837000000    -0.294000000
H    -1.409000000    -0.656000000    -1.266000000
H    -0.495000000    -1.829000000    -0.222000000
H    -1.846000000    -0.788000000     0.323000000
C     1.246000000    -0.399000000     0.704000000
H     1.303000000    -1.456000000     0.951000000
C     2.381000000     0.439000000     0.850000000
H     3.255000000     0.028000000     1.349000000
C     2.302000000     1.822000000     0.499000000
C     3.533000000     2.783000000     0.535000000
O     4.622000000     2.389000000     1.043000000
O     3.395000000     3.946000000     0.129000000
