17
-86.77397
C     0.192000000    -2.339000000    -0.465000000
H     0.767000000    -3.239000000    -0.259000000
C     0.614000000    -1.192000000     0.201000000
H     1.521000000    -1.133000000     0.797000000
C    -0.023000000     0.028000000    -0.028000000
C     0.504000000     1.336000000     0.393000000
H     1.206000000     1.663000000    -0.377000000
H    -0.306000000     2.051000000     0.553000000
H     1.086000000     1.392000000     1.315000000
C    -1.265000000     0.016000000    -0.701000000
H    -1.765000000     0.979000000    -0.753000000
C    -1.800000000    -1.158000000    -1.164000000
H    -2.727000000    -1.155000000    -1.730000000
C    -1.030000000    -2.320000000    -1.119000000
C    -1.597000000    -3.626000000    -1.519000000
O    -2.622000000    -3.716000000    -2.142000000
O    -0.987000000    -4.663000000    -1.418000000
