17
-97.59824
C     0.269000000     2.646000000     0.366000000
H    -0.024000000     3.691000000     0.314000000
C    -0.620000000     1.619000000     0.017000000
H    -1.671000000     1.845000000    -0.139000000
C    -0.132000000     0.379000000     0.118000000
C    -1.096000000    -0.743000000    -0.105000000
H    -1.384000000    -1.246000000     0.820000000
H    -2.011000000    -0.385000000    -0.580000000
H    -0.603000000    -1.426000000    -0.801000000
C     1.192000000     0.039000000     0.370000000
H     1.587000000    -0.965000000     0.236000000
C     2.058000000     1.051000000     0.713000000
H     3.102000000     0.821000000     0.910000000
C     1.594000000     2.382000000     0.698000000
C     2.541000000     3.518000000     0.895000000
O     3.618000000     3.186000000     1.340000000
O     2.275000000     4.675000000     0.526000000
