17
-93.31516
C     0.456000000     2.847000000     0.874000000
H     0.079000000     3.847000000     0.677000000
C    -0.254000000     1.705000000     0.619000000
H    -1.253000000     1.774000000     0.194000000
C     0.291000000     0.412000000     0.732000000
C    -0.501000000    -0.846000000     0.322000000
H    -1.105000000    -1.206000000     1.157000000
H    -1.119000000    -0.708000000    -0.568000000
H     0.128000000    -1.715000000     0.117000000
C     1.559000000     0.270000000     1.204000000
H     1.924000000    -0.732000000     1.412000000
C     2.285000000     1.432000000     1.696000000
H     3.303000000     1.426000000     2.078000000
C     1.736000000     2.706000000     1.428000000
C     2.565000000     3.968000000     1.849000000
O     3.507000000     3.869000000     2.583000000
O     2.193000000     5.064000000     1.514000000
