17
-92.87967
C     1.211000000     1.809000000     1.601000000
H     1.193000000     2.780000000     2.090000000
C     0.103000000     1.396000000     0.765000000
H    -0.710000000     2.081000000     0.536000000
C     0.050000000     0.076000000     0.287000000
C    -1.089000000    -0.386000000    -0.572000000
H    -1.359000000    -1.407000000    -0.293000000
H    -1.867000000     0.346000000    -0.343000000
H    -0.710000000    -0.275000000    -1.590000000
C     1.034000000    -0.822000000     0.646000000
H     1.036000000    -1.823000000     0.223000000
C     2.096000000    -0.405000000     1.481000000
H     2.821000000    -1.178000000     1.722000000
C     2.163000000     0.880000000     1.986000000
C     3.364000000     1.364000000     2.791000000
O     4.399000000     0.796000000     2.732000000
O     3.347000000     2.474000000     3.374000000
