17
-93.56812
C     1.727000000     1.658000000     1.304000000
H     1.949000000     2.597000000     1.804000000
C     0.475000000     1.300000000     0.758000000
H    -0.228000000     2.129000000     0.732000000
C     0.247000000     0.088000000     0.135000000
C    -1.117000000    -0.243000000    -0.384000000
H    -1.151000000    -0.502000000    -1.444000000
H    -1.472000000    -1.097000000     0.196000000
H    -1.904000000     0.485000000    -0.177000000
C     1.208000000    -0.932000000     0.262000000
H     1.036000000    -1.927000000    -0.141000000
C     2.445000000    -0.602000000     0.824000000
H     3.256000000    -1.317000000     0.940000000
C     2.759000000     0.681000000     1.321000000
C     4.099000000     0.867000000     1.916000000
O     4.910000000     0.006000000     2.043000000
O     4.435000000     2.037000000     2.104000000
