17
-93.11616
C     1.530000000     1.939000000     2.349000000
H     1.436000000     2.906000000     2.836000000
C     0.583000000     1.609000000     1.384000000
H    -0.165000000     2.337000000     1.083000000
C     0.542000000     0.310000000     0.882000000
C    -0.564000000    -0.040000000    -0.058000000
H    -1.369000000     0.567000000     0.362000000
H    -0.213000000     0.276000000    -1.042000000
H    -0.898000000    -1.077000000     0.017000000
C     1.587000000    -0.593000000     1.188000000
H     1.599000000    -1.612000000     0.810000000
C     2.630000000    -0.192000000     2.010000000
H     3.319000000    -0.997000000     2.252000000
C     2.526000000     1.047000000     2.680000000
C     3.520000000     1.370000000     3.840000000
O     4.443000000     0.654000000     4.093000000
O     3.443000000     2.462000000     4.378000000
