17
-94.32831
C     1.895000000     1.581000000     1.028000000
H     2.054000000     2.626000000     1.281000000
C     0.622000000     1.287000000     0.456000000
H    -0.062000000     2.114000000     0.289000000
C     0.380000000     0.050000000    -0.019000000
C    -0.990000000    -0.360000000    -0.435000000
H    -1.605000000    -0.179000000     0.449000000
H    -1.384000000     0.224000000    -1.270000000
H    -1.032000000    -1.436000000    -0.615000000
C     1.357000000    -0.982000000     0.108000000
H     1.158000000    -1.996000000    -0.230000000
C     2.631000000    -0.639000000     0.701000000
H     3.347000000    -1.414000000     0.963000000
C     2.847000000     0.584000000     1.296000000
C     4.157000000     0.741000000     1.955000000
O     4.871000000    -0.238000000     2.158000000
O     4.469000000     1.904000000     2.199000000
