17
-87.73499
C     1.640000000     1.512000000     2.285000000
H     1.668000000     2.398000000     2.913000000
C     0.575000000     1.179000000     1.492000000
H    -0.260000000     1.871000000     1.419000000
C     0.429000000    -0.010000000     0.871000000
C    -0.776000000    -0.434000000     0.007000000
H    -0.635000000    -1.295000000    -0.650000000
H    -1.543000000    -0.783000000     0.702000000
H    -1.118000000     0.422000000    -0.578000000
C     1.481000000    -0.921000000     1.000000000
H     1.475000000    -1.921000000     0.575000000
C     2.664000000    -0.508000000     1.550000000
H     3.585000000    -1.080000000     1.636000000
C     2.816000000     0.743000000     2.122000000
C     4.027000000     1.295000000     2.837000000
O     5.027000000     0.656000000     2.693000000
O     4.063000000     2.436000000     3.275000000
