17
-94.27322
C     2.139000000     1.977000000     1.840000000
H     2.405000000     2.982000000     2.159000000
C     0.932000000     1.691000000     1.204000000
H     0.201000000     2.492000000     1.137000000
C     0.561000000     0.403000000     0.784000000
C    -0.733000000     0.022000000     0.186000000
H    -1.114000000     0.806000000    -0.472000000
H    -0.665000000    -0.800000000    -0.530000000
H    -1.452000000    -0.267000000     0.955000000
C     1.427000000    -0.729000000     1.059000000
H     1.235000000    -1.742000000     0.712000000
C     2.576000000    -0.408000000     1.849000000
H     3.217000000    -1.234000000     2.145000000
C     3.012000000     0.912000000     2.121000000
C     4.138000000     1.136000000     3.113000000
O     4.880000000     0.189000000     3.170000000
O     4.348000000     2.228000000     3.628000000
