17
-82.06494
C     2.240000000     0.313000000     1.382000000
H     2.804000000     0.335000000     2.311000000
C     0.932000000    -0.038000000     1.339000000
H     0.401000000    -0.265000000     2.260000000
C     0.267000000    -0.234000000     0.123000000
C    -1.270000000    -0.503000000     0.052000000
H    -1.423000000    -1.408000000    -0.540000000
H    -1.674000000    -0.751000000     1.036000000
H    -1.808000000     0.369000000    -0.326000000
C     0.949000000     0.018000000    -1.033000000
H     0.468000000    -0.001000000    -2.008000000
C     2.344000000     0.328000000    -1.008000000
H     2.965000000     0.458000000    -1.891000000
C     3.023000000     0.358000000     0.219000000
C     4.437000000     0.583000000     0.231000000
O     5.097000000     1.201000000    -0.593000000
O     4.990000000     0.308000000     1.235000000
