17
-96.72322
C     1.911000000     0.447000000     1.848000000
H     2.180000000     0.601000000     2.890000000
C     0.602000000     0.076000000     1.472000000
H    -0.249000000     0.013000000     2.146000000
C     0.256000000    -0.035000000     0.123000000
C    -1.143000000    -0.477000000    -0.265000000
H    -1.568000000    -0.127000000    -1.207000000
H    -1.143000000    -1.564000000    -0.369000000
H    -1.887000000    -0.218000000     0.492000000
C     1.237000000    -0.028000000    -0.841000000
H     0.910000000    -0.204000000    -1.863000000
C     2.570000000     0.207000000    -0.448000000
H     3.297000000     0.239000000    -1.255000000
C     2.927000000     0.553000000     0.893000000
C     4.302000000     0.977000000     1.290000000
O     5.226000000     0.776000000     0.490000000
O     4.543000000     1.212000000     2.464000000
