17
-93.40521
C     1.778000000     1.278000000     1.067000000
H     2.145000000     1.465000000     2.073000000
C     0.500000000     0.655000000     1.003000000
H    -0.002000000     0.283000000     1.893000000
C    -0.030000000     0.314000000    -0.204000000
C    -1.352000000    -0.438000000    -0.307000000
H    -1.787000000    -0.629000000     0.676000000
H    -2.130000000    -0.196000000    -1.034000000
H    -1.017000000    -1.464000000    -0.475000000
C     0.580000000     0.741000000    -1.381000000
H     0.147000000     0.593000000    -2.368000000
C     1.788000000     1.455000000    -1.270000000
H     2.167000000     1.794000000    -2.230000000
C     2.381000000     1.722000000    -0.040000000
C     3.619000000     2.515000000     0.135000000
O     4.021000000     3.149000000    -0.850000000
O     4.202000000     2.573000000     1.211000000
