17
-100.90830
C     2.266000000     0.379000000     1.580000000
H     2.620000000     0.846000000     2.496000000
C     0.930000000     0.032000000     1.453000000
H     0.176000000     0.035000000     2.236000000
C     0.512000000    -0.473000000     0.213000000
C    -0.937000000    -0.883000000     0.000000000
H    -1.542000000    -0.478000000     0.813000000
H    -1.278000000    -0.530000000    -0.976000000
H    -1.018000000    -1.972000000     0.010000000
C     1.414000000    -0.633000000    -0.824000000
H     1.135000000    -0.990000000    -1.813000000
C     2.730000000    -0.289000000    -0.679000000
H     3.422000000    -0.577000000    -1.466000000
C     3.214000000     0.168000000     0.607000000
C     4.668000000     0.432000000     0.849000000
O     5.430000000     0.289000000    -0.092000000
O     5.015000000     0.651000000     2.010000000
