17
-92.25382
C     2.160000000     0.436000000     1.180000000
H     2.646000000     0.479000000     2.151000000
C     0.740000000     0.246000000     1.197000000
H     0.256000000    -0.006000000     2.137000000
C     0.093000000     0.068000000    -0.003000000
C    -1.325000000    -0.441000000    -0.008000000
H    -1.927000000     0.433000000     0.251000000
H    -1.642000000    -0.854000000    -0.968000000
H    -1.594000000    -1.235000000     0.692000000
C     0.803000000     0.238000000    -1.196000000
H     0.227000000     0.055000000    -2.100000000
C     2.186000000     0.409000000    -1.225000000
H     2.623000000     0.557000000    -2.209000000
C     2.873000000     0.547000000    -0.063000000
C     4.341000000     0.803000000    -0.112000000
O     4.823000000     0.531000000    -1.210000000
O     5.022000000     0.991000000     0.856000000
