17
-89.18310
C     1.454000000     1.549000000     1.195000000
H     1.598000000     2.502000000     1.697000000
C     0.213000000     1.131000000     0.759000000
H    -0.705000000     1.713000000     0.789000000
C     0.120000000    -0.116000000     0.255000000
C    -1.116000000    -0.767000000    -0.273000000
H    -1.190000000    -0.718000000    -1.361000000
H    -1.212000000    -1.816000000     0.014000000
H    -2.002000000    -0.248000000     0.097000000
C     1.179000000    -0.942000000     0.013000000
H     1.079000000    -1.906000000    -0.478000000
C     2.391000000    -0.396000000     0.412000000
H     3.285000000    -0.930000000     0.100000000
C     2.564000000     0.782000000     1.093000000
C     3.935000000     1.300000000     1.491000000
O     4.947000000     0.806000000     1.037000000
O     3.972000000     2.311000000     2.157000000
