17
-93.86282
C     1.250000000     1.958000000     1.608000000
H     1.177000000     2.954000000     2.038000000
C     0.093000000     1.437000000     0.971000000
H    -0.846000000     1.985000000     0.976000000
C     0.167000000     0.236000000     0.317000000
C    -1.142000000    -0.316000000    -0.301000000
H    -1.120000000    -0.457000000    -1.384000000
H    -1.408000000    -1.301000000     0.088000000
H    -1.949000000     0.406000000    -0.165000000
C     1.371000000    -0.531000000     0.329000000
H     1.644000000    -1.418000000    -0.236000000
C     2.522000000     0.010000000     0.859000000
H     3.499000000    -0.463000000     0.794000000
C     2.479000000     1.238000000     1.486000000
C     3.846000000     1.756000000     2.059000000
O     4.775000000     0.954000000     2.016000000
O     4.042000000     2.891000000     2.440000000
