17
-97.21405
C     2.355000000     1.234000000     1.940000000
H     2.376000000     1.418000000     3.012000000
C     1.174000000     0.812000000     1.316000000
H     0.262000000     0.670000000     1.891000000
C     1.116000000     0.414000000    -0.026000000
C    -0.180000000    -0.052000000    -0.636000000
H    -0.978000000     0.476000000    -0.111000000
H    -0.187000000     0.237000000    -1.689000000
H    -0.302000000    -1.137000000    -0.612000000
C     2.217000000     0.574000000    -0.824000000
H     2.245000000     0.325000000    -1.882000000
C     3.435000000     0.901000000    -0.228000000
H     4.256000000     0.720000000    -0.917000000
C     3.499000000     1.235000000     1.133000000
C     4.886000000     1.355000000     1.727000000
O     5.910000000     1.050000000     1.117000000
O     4.981000000     1.763000000     2.890000000
