17
-93.81436
C     2.110000000     0.560000000     1.759000000
H     2.518000000     0.571000000     2.766000000
C     0.829000000     0.170000000     1.398000000
H     0.124000000    -0.006000000     2.206000000
C     0.435000000    -0.140000000     0.119000000
C    -0.992000000    -0.578000000    -0.105000000
H    -1.323000000    -1.298000000     0.646000000
H    -1.563000000     0.318000000     0.144000000
H    -1.159000000    -0.981000000    -1.106000000
C     1.300000000     0.188000000    -0.905000000
H     0.984000000     0.026000000    -1.932000000
C     2.596000000     0.688000000    -0.626000000
H     3.369000000     0.929000000    -1.351000000
C     3.026000000     0.709000000     0.690000000
C     4.431000000     1.287000000     0.846000000
O     5.232000000     1.087000000    -0.035000000
O     4.672000000     1.675000000     1.976000000
