17
-90.91597
C     1.666000000     1.520000000     1.785000000
H     2.087000000     2.417000000     2.232000000
C     0.428000000     1.346000000     1.094000000
H    -0.166000000     2.248000000     0.968000000
C     0.134000000     0.156000000     0.404000000
C    -1.290000000    -0.091000000    -0.205000000
H    -2.000000000     0.669000000     0.130000000
H    -1.195000000    -0.010000000    -1.290000000
H    -1.534000000    -1.107000000     0.111000000
C     1.019000000    -0.870000000     0.359000000
H     0.751000000    -1.798000000    -0.139000000
C     2.200000000    -0.682000000     1.032000000
H     2.979000000    -1.440000000     1.008000000
C     2.564000000     0.469000000     1.773000000
C     3.852000000     0.522000000     2.585000000
O     4.844000000    -0.019000000     2.154000000
O     3.964000000     1.274000000     3.542000000
