17
-98.53574
C     0.291000000    -2.314000000    -0.110000000
H     0.937000000    -3.119000000     0.231000000
C     0.657000000    -1.046000000     0.230000000
H     1.613000000    -0.828000000     0.698000000
C    -0.162000000     0.044000000     0.011000000
C     0.334000000     1.455000000     0.343000000
H    -0.296000000     1.997000000     1.052000000
H     1.359000000     1.346000000     0.702000000
H     0.321000000     2.027000000    -0.588000000
C    -1.375000000    -0.141000000    -0.655000000
H    -1.976000000     0.757000000    -0.773000000
C    -1.818000000    -1.431000000    -0.945000000
H    -2.699000000    -1.568000000    -1.566000000
C    -0.990000000    -2.554000000    -0.724000000
C    -1.387000000    -3.964000000    -1.195000000
O    -2.156000000    -4.120000000    -2.116000000
O    -0.933000000    -4.960000000    -0.539000000
