17
-98.12831
C     1.057000000     1.844000000     1.552000000
H     1.016000000     2.862000000     1.932000000
C     0.055000000     1.230000000     0.798000000
H    -0.770000000     1.835000000     0.431000000
C     0.190000000    -0.136000000     0.475000000
C    -0.814000000    -0.865000000    -0.478000000
H    -1.245000000    -0.239000000    -1.263000000
H    -0.340000000    -1.668000000    -1.045000000
H    -1.659000000    -1.326000000     0.037000000
C     1.293000000    -0.919000000     0.970000000
H     1.477000000    -1.960000000     0.715000000
C     2.329000000    -0.237000000     1.626000000
H     3.163000000    -0.863000000     1.930000000
C     2.201000000     1.122000000     1.953000000
C     3.270000000     1.683000000     2.836000000
O     3.752000000     0.814000000     3.583000000
O     3.455000000     2.883000000     2.927000000
