17
-91.17427
C    -0.248000000     2.550000000     1.678000000
H    -0.722000000     3.483000000     1.970000000
C    -0.748000000     1.581000000     0.776000000
H    -1.650000000     1.748000000     0.193000000
C    -0.184000000     0.307000000     0.757000000
C    -0.843000000    -0.680000000    -0.070000000
H    -0.016000000    -1.293000000    -0.435000000
H    -1.482000000    -1.176000000     0.664000000
H    -1.393000000    -0.271000000    -0.920000000
C     1.098000000     0.174000000     1.217000000
H     1.665000000    -0.723000000     0.981000000
C     1.598000000     1.119000000     2.074000000
H     2.587000000     0.897000000     2.467000000
C     0.948000000     2.297000000     2.363000000
C     1.502000000     3.362000000     3.301000000
O     2.623000000     3.232000000     3.771000000
O     0.731000000     4.303000000     3.692000000
