17
-93.37546
C    -0.163000000    -2.694000000     0.014000000
H     0.276000000    -3.654000000     0.272000000
C     0.405000000    -1.504000000     0.474000000
H     1.328000000    -1.658000000     1.027000000
C    -0.049000000    -0.252000000     0.113000000
C     0.438000000     1.106000000     0.601000000
H     0.249000000     1.813000000    -0.210000000
H    -0.023000000     1.400000000     1.546000000
H     1.498000000     0.963000000     0.822000000
C    -1.258000000    -0.160000000    -0.581000000
H    -1.713000000     0.813000000    -0.748000000
C    -1.880000000    -1.330000000    -0.984000000
H    -2.875000000    -1.325000000    -1.423000000
C    -1.322000000    -2.621000000    -0.785000000
C    -2.068000000    -3.856000000    -1.169000000
O    -3.079000000    -3.865000000    -1.834000000
O    -1.559000000    -4.898000000    -0.839000000
