17
-100.23557
C     0.770000000     2.625000000     1.712000000
H     0.447000000     3.614000000     2.026000000
C     0.032000000     1.919000000     0.734000000
H    -0.805000000     2.407000000     0.241000000
C     0.318000000     0.602000000     0.440000000
C    -0.435000000    -0.261000000    -0.564000000
H    -0.036000000    -0.163000000    -1.576000000
H    -0.366000000    -1.312000000    -0.275000000
H    -1.499000000    -0.015000000    -0.573000000
C     1.435000000     0.038000000     1.098000000
H     1.741000000    -0.965000000     0.810000000
C     2.270000000     0.777000000     1.989000000
H     3.160000000     0.352000000     2.445000000
C     1.914000000     2.088000000     2.291000000
C     2.790000000     2.863000000     3.201000000
O     3.909000000     2.471000000     3.430000000
O     2.380000000     3.956000000     3.545000000
