17
-100.05498
C     1.529000000     2.358000000     1.444000000
H     1.555000000     3.442000000     1.507000000
C     0.672000000     1.644000000     0.602000000
H    -0.012000000     2.226000000    -0.011000000
C     0.662000000     0.271000000     0.627000000
C    -0.216000000    -0.460000000    -0.389000000
H    -1.288000000    -0.335000000    -0.226000000
H    -0.108000000     0.043000000    -1.352000000
H     0.103000000    -1.500000000    -0.481000000
C     1.561000000    -0.428000000     1.402000000
H     1.588000000    -1.512000000     1.318000000
C     2.435000000     0.251000000     2.267000000
H     3.250000000    -0.294000000     2.737000000
C     2.443000000     1.643000000     2.297000000
C     3.349000000     2.404000000     3.182000000
O     4.279000000     1.837000000     3.783000000
O     3.123000000     3.589000000     3.395000000
