17
-91.59512
C    -0.317000000     3.198000000     1.030000000
H    -0.949000000     4.037000000     1.310000000
C    -0.889000000     2.058000000     0.523000000
H    -1.955000000     2.124000000     0.321000000
C    -0.116000000     0.900000000     0.340000000
C    -0.683000000    -0.271000000    -0.420000000
H    -0.481000000    -1.084000000     0.281000000
H    -1.746000000    -0.209000000    -0.662000000
H    -0.162000000    -0.503000000    -1.350000000
C     1.225000000     0.893000000     0.646000000
H     1.797000000    -0.011000000     0.456000000
C     1.800000000     2.060000000     1.160000000
H     2.863000000     2.047000000     1.385000000
C     1.018000000     3.125000000     1.428000000
C     1.649000000     4.332000000     2.052000000
O     2.827000000     4.546000000     1.901000000
O     1.060000000     5.115000000     2.799000000
