17
-96.88347
C    -0.338000000    -2.861000000    -0.042000000
H     0.115000000    -3.735000000     0.420000000
C     0.166000000    -1.619000000     0.230000000
H     1.049000000    -1.479000000     0.849000000
C    -0.442000000    -0.477000000    -0.201000000
C     0.190000000     0.868000000     0.009000000
H     0.665000000     0.871000000     0.992000000
H     0.973000000     1.139000000    -0.703000000
H    -0.462000000     1.735000000     0.133000000
C    -1.634000000    -0.590000000    -0.854000000
H    -2.169000000     0.325000000    -1.093000000
C    -2.188000000    -1.837000000    -1.099000000
H    -3.134000000    -1.967000000    -1.619000000
C    -1.544000000    -2.989000000    -0.694000000
C    -1.881000000    -4.415000000    -1.151000000
O    -2.663000000    -4.560000000    -2.056000000
O    -1.218000000    -5.351000000    -0.657000000
