17
-85.76830
C     0.397000000     2.529000000    -0.631000000
H     0.815000000     3.161000000    -1.411000000
C     0.138000000     1.273000000    -1.039000000
H     0.209000000     1.005000000    -2.090000000
C    -0.357000000     0.432000000    -0.064000000
C    -0.660000000    -1.022000000    -0.470000000
H    -1.664000000    -1.060000000    -0.900000000
H    -0.030000000    -1.306000000    -1.315000000
H    -0.365000000    -1.733000000     0.304000000
C    -0.543000000     0.923000000     1.247000000
H    -0.972000000     0.251000000     1.986000000
C    -0.094000000     2.182000000     1.693000000
H    -0.221000000     2.523000000     2.718000000
C     0.405000000     3.027000000     0.678000000
C     1.141000000     4.284000000     0.993000000
O     1.015000000     4.867000000     2.039000000
O     1.891000000     4.797000000     0.195000000
