17
-93.56430
C     0.703000000     2.324000000    -0.339000000
H     0.865000000     3.165000000    -1.008000000
C     0.242000000     1.081000000    -0.852000000
H     0.329000000     0.944000000    -1.927000000
C     0.003000000     0.021000000     0.010000000
C    -0.585000000    -1.259000000    -0.540000000
H    -1.366000000    -1.548000000     0.167000000
H    -1.058000000    -1.109000000    -1.513000000
H     0.136000000    -2.077000000    -0.486000000
C    -0.001000000     0.267000000     1.388000000
H    -0.302000000    -0.571000000     2.012000000
C     0.375000000     1.544000000     1.930000000
H     0.341000000     1.760000000     2.994000000
C     0.697000000     2.594000000     1.064000000
C     1.125000000     3.963000000     1.420000000
O     1.333000000     4.244000000     2.652000000
O     1.011000000     4.908000000     0.645000000
