17
-93.27096
C     0.641000000    -2.498000000    -0.353000000
H     1.426000000    -3.235000000    -0.202000000
C     0.776000000    -1.166000000     0.212000000
H     1.636000000    -0.882000000     0.812000000
C    -0.215000000    -0.225000000    -0.051000000
C    -0.034000000     1.231000000     0.510000000
H     0.456000000     1.198000000     1.485000000
H     0.644000000     1.883000000    -0.044000000
H    -0.976000000     1.778000000     0.588000000
C    -1.363000000    -0.614000000    -0.770000000
H    -2.202000000     0.056000000    -0.939000000
C    -1.481000000    -1.880000000    -1.303000000
H    -2.281000000    -2.195000000    -1.967000000
C    -0.448000000    -2.799000000    -1.145000000
C    -0.455000000    -4.134000000    -1.935000000
O    -1.437000000    -4.546000000    -2.473000000
O     0.476000000    -4.925000000    -1.761000000
