17
-95.05618
C     1.762000000     1.935000000    -1.598000000
H     2.416000000     2.193000000    -2.428000000
C     1.155000000     0.708000000    -1.526000000
H     1.291000000    -0.083000000    -2.259000000
C     0.165000000     0.449000000    -0.566000000
C    -0.747000000    -0.783000000    -0.594000000
H    -0.099000000    -1.651000000    -0.737000000
H    -1.327000000    -0.908000000     0.322000000
H    -1.483000000    -0.815000000    -1.400000000
C    -0.168000000     1.397000000     0.366000000
H    -0.979000000     1.093000000     1.023000000
C     0.543000000     2.606000000     0.413000000
H     0.266000000     3.302000000     1.201000000
C     1.428000000     2.938000000    -0.645000000
C     2.221000000     4.192000000    -0.489000000
O     2.247000000     4.704000000     0.604000000
O     2.948000000     4.539000000    -1.407000000
