17
-97.01748
C     2.012000000     1.567000000    -1.314000000
H     2.804000000     1.683000000    -2.050000000
C     1.336000000     0.337000000    -1.283000000
H     1.652000000    -0.431000000    -1.984000000
C     0.248000000     0.157000000    -0.434000000
C    -0.629000000    -1.041000000    -0.456000000
H    -1.668000000    -0.733000000    -0.591000000
H    -0.292000000    -1.636000000    -1.307000000
H    -0.612000000    -1.527000000     0.522000000
C    -0.093000000     1.167000000     0.450000000
H    -1.004000000     1.173000000     1.044000000
C     0.584000000     2.423000000     0.407000000
H     0.212000000     3.278000000     0.966000000
C     1.634000000     2.640000000    -0.516000000
C     2.373000000     3.940000000    -0.495000000
O     1.927000000     4.847000000     0.166000000
O     3.465000000     4.096000000    -1.042000000
