17
-97.70856
C     0.992000000     2.121000000    -1.333000000
H     1.718000000     2.182000000    -2.140000000
C     0.446000000     0.830000000    -1.109000000
H     0.724000000     0.000000000    -1.754000000
C    -0.311000000     0.610000000    -0.002000000
C    -1.076000000    -0.702000000     0.253000000
H    -0.359000000    -1.406000000     0.680000000
H    -2.022000000    -0.775000000     0.793000000
H    -1.362000000    -1.050000000    -0.742000000
C    -0.551000000     1.683000000     0.910000000
H    -1.070000000     1.399000000     1.822000000
C    -0.074000000     2.968000000     0.659000000
H    -0.323000000     3.825000000     1.279000000
C     0.660000000     3.198000000    -0.531000000
C     1.338000000     4.586000000    -0.766000000
O     1.470000000     5.311000000     0.202000000
O     1.890000000     4.803000000    -1.852000000
