17
-93.27253
C     0.929000000    -2.316000000     0.404000000
H     1.745000000    -2.879000000     0.849000000
C     1.075000000    -0.868000000     0.538000000
H     1.927000000    -0.377000000     1.002000000
C     0.066000000    -0.085000000     0.071000000
C    -0.009000000     1.344000000     0.363000000
H    -0.981000000     1.745000000     0.067000000
H    -0.093000000     1.394000000     1.451000000
H     0.803000000     1.981000000     0.007000000
C    -1.009000000    -0.672000000    -0.625000000
H    -1.773000000    -0.038000000    -1.069000000
C    -1.088000000    -2.054000000    -0.839000000
H    -1.942000000    -2.455000000    -1.379000000
C    -0.110000000    -2.941000000    -0.354000000
C    -0.149000000    -4.381000000    -0.691000000
O    -0.968000000    -4.778000000    -1.551000000
O     0.691000000    -5.113000000    -0.257000000
