17
-96.55089
C     1.510000000     1.210000000    -1.767000000
H     2.291000000     1.147000000    -2.520000000
C     0.813000000     0.035000000    -1.350000000
H     0.946000000    -0.896000000    -1.894000000
C    -0.106000000     0.002000000    -0.305000000
C    -0.802000000    -1.296000000     0.008000000
H    -1.819000000    -1.165000000     0.382000000
H    -0.933000000    -2.009000000    -0.809000000
H    -0.186000000    -1.878000000     0.697000000
C    -0.439000000     1.239000000     0.276000000
H    -1.206000000     1.184000000     1.044000000
C     0.221000000     2.394000000    -0.139000000
H    -0.052000000     3.335000000     0.332000000
C     1.171000000     2.416000000    -1.124000000
C     1.850000000     3.712000000    -1.410000000
O     1.470000000     4.860000000    -1.054000000
O     2.797000000     3.613000000    -2.163000000
