17
-90.14249
C     1.716000000     1.192000000    -2.060000000
H     2.396000000     1.179000000    -2.908000000
C     1.004000000     0.115000000    -1.533000000
H     1.109000000    -0.826000000    -2.066000000
C     0.056000000     0.241000000    -0.512000000
C    -0.548000000    -0.999000000     0.069000000
H     0.143000000    -1.545000000     0.715000000
H    -1.463000000    -0.793000000     0.629000000
H    -0.769000000    -1.583000000    -0.827000000
C    -0.017000000     1.391000000     0.200000000
H    -0.662000000     1.413000000     1.075000000
C     0.593000000     2.567000000    -0.304000000
H     0.485000000     3.581000000     0.073000000
C     1.392000000     2.470000000    -1.472000000
C     2.042000000     3.733000000    -1.951000000
O     1.615000000     4.794000000    -1.540000000
O     2.835000000     3.684000000    -2.833000000
