17
-94.57689
C    -0.184000000     2.664000000    -0.982000000
H    -0.095000000     3.238000000    -1.900000000
C    -0.288000000     1.287000000    -1.026000000
H    -0.481000000     0.794000000    -1.976000000
C    -0.245000000     0.601000000     0.199000000
C    -0.551000000    -0.876000000     0.310000000
H    -1.625000000    -0.949000000     0.495000000
H    -0.260000000    -1.378000000    -0.615000000
H     0.092000000    -1.256000000     1.107000000
C    -0.026000000     1.300000000     1.381000000
H    -0.085000000     0.919000000     2.398000000
C     0.079000000     2.673000000     1.421000000
H     0.038000000     3.203000000     2.369000000
C     0.043000000     3.355000000     0.247000000
C     0.201000000     4.880000000     0.212000000
O     0.284000000     5.534000000     1.228000000
O     0.231000000     5.428000000    -0.859000000
