17
-93.01014
C    -0.371000000     2.932000000     1.003000000
H    -0.973000000     3.837000000     0.982000000
C    -0.739000000     1.895000000     0.174000000
H    -1.562000000     2.006000000    -0.527000000
C    -0.099000000     0.694000000     0.342000000
C    -0.358000000    -0.453000000    -0.505000000
H    -1.393000000    -0.595000000    -0.823000000
H     0.146000000    -0.517000000    -1.471000000
H    -0.121000000    -1.361000000     0.054000000
C     0.839000000     0.558000000     1.374000000
H     1.371000000    -0.356000000     1.624000000
C     1.167000000     1.665000000     2.175000000
H     1.886000000     1.406000000     2.947000000
C     0.640000000     2.882000000     1.934000000
C     0.860000000     4.047000000     2.904000000
O     1.885000000     4.148000000     3.534000000
O     0.001000000     4.926000000     3.017000000
