17
-72.88499
C    -0.184000000     2.988000000     1.146000000
H    -0.595000000     3.956000000     0.873000000
C    -0.659000000     1.991000000     0.259000000
H    -1.480000000     2.185000000    -0.427000000
C    -0.017000000     0.742000000     0.388000000
C    -0.623000000    -0.499000000    -0.356000000
H    -1.291000000    -0.242000000    -1.181000000
H     0.091000000    -1.264000000    -0.667000000
H    -1.295000000    -0.962000000     0.370000000
C     1.021000000     0.552000000     1.260000000
H     1.563000000    -0.382000000     1.390000000
C     1.356000000     1.556000000     2.164000000
H     1.966000000     1.289000000     3.023000000
C     0.868000000     2.835000000     2.044000000
C     0.882000000     3.853000000     3.122000000
O     1.688000000     3.828000000     4.011000000
O     0.383000000     4.922000000     2.954000000
