17
-97.04191
C     0.743000000     2.652000000     1.444000000
H     0.348000000     3.665000000     1.453000000
C     0.299000000     1.695000000     0.548000000
H    -0.506000000     1.901000000    -0.153000000
C     0.709000000     0.381000000     0.621000000
C     0.094000000    -0.721000000    -0.223000000
H     0.207000000    -1.694000000     0.260000000
H    -0.993000000    -0.641000000    -0.164000000
H     0.421000000    -0.793000000    -1.263000000
C     1.599000000     0.067000000     1.636000000
H     1.961000000    -0.953000000     1.738000000
C     2.195000000     1.020000000     2.408000000
H     2.927000000     0.769000000     3.171000000
C     1.779000000     2.335000000     2.372000000
C     2.318000000     3.484000000     3.201000000
O     3.008000000     3.165000000     4.165000000
O     2.112000000     4.635000000     2.925000000
