17
-89.16657
C    -0.190000000     2.031000000     1.444000000
H    -0.801000000     2.873000000     1.759000000
C    -0.753000000     1.149000000     0.442000000
H    -1.577000000     1.424000000    -0.211000000
C    -0.111000000    -0.100000000     0.220000000
C    -0.616000000    -0.977000000    -0.893000000
H     0.226000000    -1.186000000    -1.557000000
H    -1.019000000    -1.895000000    -0.461000000
H    -1.454000000    -0.486000000    -1.392000000
C     1.044000000    -0.424000000     0.895000000
H     1.503000000    -1.385000000     0.680000000
C     1.544000000     0.418000000     1.896000000
H     2.423000000     0.087000000     2.443000000
C     0.931000000     1.657000000     2.150000000
C     1.529000000     2.423000000     3.245000000
O     2.310000000     1.959000000     4.024000000
O     1.216000000     3.574000000     3.446000000
