17
-91.92977
C     0.797000000     2.688000000     1.137000000
H     0.454000000     3.717000000     1.075000000
C     0.327000000     1.809000000     0.192000000
H    -0.428000000     2.015000000    -0.562000000
C     0.635000000     0.463000000     0.256000000
C     0.072000000    -0.585000000    -0.651000000
H     0.127000000    -1.479000000    -0.026000000
H    -0.981000000    -0.340000000    -0.803000000
H     0.648000000    -0.594000000    -1.579000000
C     1.526000000     0.036000000     1.282000000
H     1.834000000    -1.006000000     1.288000000
C     1.986000000     0.966000000     2.262000000
H     2.637000000     0.568000000     3.036000000
C     1.652000000     2.328000000     2.162000000
C     2.087000000     3.304000000     3.206000000
O     2.829000000     2.851000000     4.078000000
O     1.597000000     4.401000000     3.430000000
