17
-96.41549
C     0.610000000     1.836000000     1.610000000
H     0.225000000     2.738000000     2.078000000
C    -0.149000000     1.070000000     0.721000000
H    -1.159000000     1.295000000     0.389000000
C     0.404000000    -0.152000000     0.197000000
C    -0.496000000    -0.987000000    -0.759000000
H     0.081000000    -1.636000000    -1.420000000
H    -1.291000000    -1.520000000    -0.233000000
H    -0.933000000    -0.335000000    -1.518000000
C     1.674000000    -0.543000000     0.582000000
H     2.081000000    -1.481000000     0.212000000
C     2.302000000     0.156000000     1.578000000
H     3.297000000    -0.121000000     1.919000000
C     1.808000000     1.316000000     2.141000000
C     2.466000000     2.070000000     3.273000000
O     3.657000000     1.842000000     3.466000000
O     1.929000000     3.005000000     3.840000000
