17
-88.16561
C    -0.213000000     2.735000000     1.154000000
H    -0.546000000     3.768000000     1.088000000
C    -0.741000000     1.769000000     0.181000000
H    -1.462000000     2.193000000    -0.513000000
C    -0.367000000     0.432000000     0.162000000
C    -1.098000000    -0.531000000    -0.720000000
H    -1.522000000    -0.011000000    -1.582000000
H    -0.458000000    -1.342000000    -1.072000000
H    -1.929000000    -1.039000000    -0.226000000
C     0.573000000     0.050000000     1.095000000
H     0.922000000    -0.980000000     1.099000000
C     1.124000000     0.960000000     2.074000000
H     1.794000000     0.591000000     2.846000000
C     0.714000000     2.304000000     2.066000000
C     1.204000000     3.208000000     3.144000000
O     2.127000000     2.800000000     3.809000000
O     0.987000000     4.381000000     3.174000000
