17
-93.52599
C     0.592000000     2.038000000     1.552000000
H     0.153000000     3.008000000     1.772000000
C    -0.183000000     1.189000000     0.755000000
H    -1.106000000     1.632000000     0.389000000
C     0.388000000    -0.095000000     0.426000000
C    -0.396000000    -0.955000000    -0.526000000
H    -0.042000000    -1.988000000    -0.517000000
H    -1.419000000    -0.896000000    -0.149000000
H    -0.354000000    -0.529000000    -1.531000000
C     1.679000000    -0.421000000     0.881000000
H     2.110000000    -1.357000000     0.536000000
C     2.407000000     0.482000000     1.636000000
H     3.440000000     0.250000000     1.880000000
C     1.919000000     1.750000000     2.015000000
C     2.819000000     2.776000000     2.732000000
O     3.922000000     2.504000000     3.159000000
O     2.214000000     3.736000000     3.192000000
