17
-94.17627
C     0.531000000     2.201000000     0.703000000
H     0.356000000     3.270000000     0.613000000
C    -0.311000000     1.327000000    -0.028000000
H    -1.115000000     1.759000000    -0.618000000
C    -0.128000000    -0.121000000    -0.052000000
C    -1.027000000    -0.916000000    -0.963000000
H    -1.383000000    -0.292000000    -1.786000000
H    -0.474000000    -1.715000000    -1.461000000
H    -1.834000000    -1.472000000    -0.483000000
C     0.932000000    -0.671000000     0.636000000
H     1.018000000    -1.749000000     0.745000000
C     1.769000000     0.158000000     1.439000000
H     2.625000000    -0.327000000     1.902000000
C     1.607000000     1.579000000     1.381000000
C     2.627000000     2.466000000     2.001000000
O     3.424000000     1.953000000     2.746000000
O     2.677000000     3.631000000     1.676000000
