17
-85.61482
C     0.467000000     2.199000000     0.711000000
H     0.234000000     3.257000000     0.621000000
C    -0.193000000     1.253000000    -0.025000000
H    -1.026000000     1.576000000    -0.645000000
C     0.190000000    -0.042000000     0.113000000
C    -0.603000000    -1.122000000    -0.534000000
H    -1.483000000    -1.272000000     0.094000000
H    -0.755000000    -1.052000000    -1.613000000
H    -0.107000000    -2.065000000    -0.294000000
C     1.336000000    -0.344000000     0.878000000
H     1.677000000    -1.373000000     0.955000000
C     1.993000000     0.641000000     1.535000000
H     2.834000000     0.369000000     2.168000000
C     1.544000000     1.933000000     1.474000000
C     2.241000000     3.070000000     2.209000000
O     3.297000000     2.819000000     2.755000000
O     2.084000000     4.260000000     1.865000000
