17
-90.35350
C     0.372000000     2.520000000     0.994000000
H     0.206000000     3.593000000     1.023000000
C    -0.332000000     1.731000000     0.102000000
H    -1.184000000     2.097000000    -0.466000000
C    -0.038000000     0.401000000    -0.018000000
C    -0.613000000    -0.554000000    -1.036000000
H    -1.095000000    -1.419000000    -0.576000000
H    -1.444000000    -0.117000000    -1.593000000
H     0.104000000    -0.983000000    -1.740000000
C     0.864000000    -0.223000000     0.761000000
H     1.031000000    -1.291000000     0.648000000
C     1.721000000     0.544000000     1.573000000
H     2.633000000     0.127000000     1.992000000
C     1.425000000     1.926000000     1.652000000
C     2.392000000     2.817000000     2.323000000
O     3.417000000     2.369000000     2.799000000
O     2.119000000     3.987000000     2.349000000
