17
-100.95671
C     2.552000000     2.072000000     0.620000000
H     2.779000000     3.134000000     0.670000000
C     1.268000000     1.660000000     0.126000000
H     0.550000000     2.323000000    -0.350000000
C     0.969000000     0.313000000     0.192000000
C    -0.399000000    -0.187000000    -0.258000000
H    -0.249000000    -1.178000000    -0.690000000
H    -1.023000000    -0.223000000     0.638000000
H    -0.958000000     0.489000000    -0.910000000
C     1.849000000    -0.626000000     0.704000000
H     1.514000000    -1.652000000     0.834000000
C     3.060000000    -0.239000000     1.243000000
H     3.781000000    -0.950000000     1.639000000
C     3.435000000     1.136000000     1.251000000
C     4.702000000     1.608000000     1.920000000
O     5.328000000     0.731000000     2.584000000
O     5.150000000     2.718000000     1.699000000
