17
-83.90403
C     1.236000000     2.294000000     0.416000000
H     1.161000000     3.377000000     0.480000000
C     0.155000000     1.600000000    -0.130000000
H    -0.707000000     2.193000000    -0.426000000
C     0.056000000     0.209000000    -0.079000000
C    -1.175000000    -0.454000000    -0.541000000
H    -0.948000000    -1.033000000    -1.439000000
H    -1.698000000    -1.066000000     0.197000000
H    -1.878000000     0.345000000    -0.787000000
C     1.146000000    -0.524000000     0.402000000
H     1.140000000    -1.610000000     0.461000000
C     2.207000000     0.141000000     0.949000000
H     3.125000000    -0.381000000     1.207000000
C     2.283000000     1.590000000     1.024000000
C     3.428000000     2.310000000     1.527000000
O     4.300000000     1.670000000     2.031000000
O     3.330000000     3.473000000     1.820000000
