17
-92.98184
C     2.046000000     1.796000000     0.136000000
H     2.354000000     2.819000000    -0.068000000
C     0.764000000     1.273000000    -0.100000000
H     0.040000000     1.908000000    -0.605000000
C     0.471000000    -0.081000000     0.103000000
C    -0.786000000    -0.700000000    -0.364000000
H    -1.075000000    -0.367000000    -1.363000000
H    -0.762000000    -1.791000000    -0.316000000
H    -1.678000000    -0.447000000     0.212000000
C     1.433000000    -0.889000000     0.672000000
H     1.242000000    -1.949000000     0.818000000
C     2.722000000    -0.334000000     1.019000000
H     3.448000000    -0.962000000     1.528000000
C     3.008000000     0.995000000     0.724000000
C     4.368000000     1.601000000     1.029000000
O     5.323000000     0.942000000     1.333000000
O     4.449000000     2.783000000     1.123000000
