17
-95.13375
C     1.383000000     1.895000000     0.176000000
H     1.783000000     2.841000000    -0.180000000
C     0.342000000     1.269000000    -0.427000000
H    -0.193000000     1.842000000    -1.180000000
C    -0.005000000    -0.010000000    -0.031000000
C    -1.137000000    -0.732000000    -0.652000000
H    -1.379000000    -1.727000000    -0.275000000
H    -2.060000000    -0.151000000    -0.713000000
H    -0.869000000    -0.889000000    -1.699000000
C     0.730000000    -0.700000000     0.967000000
H     0.537000000    -1.698000000     1.355000000
C     1.733000000    -0.012000000     1.645000000
H     2.186000000    -0.467000000     2.522000000
C     2.056000000     1.283000000     1.240000000
C     3.084000000     2.112000000     1.979000000
O     3.747000000     1.583000000     2.875000000
O     3.278000000     3.282000000     1.786000000
