17
-95.72530
C     1.559000000    -3.484000000    -1.677000000
H     2.572000000    -3.860000000    -1.556000000
C     1.190000000    -2.287000000    -1.055000000
H     1.831000000    -1.729000000    -0.376000000
C    -0.046000000    -1.687000000    -1.298000000
C    -0.470000000    -0.364000000    -0.800000000
H    -1.245000000    -0.462000000    -0.037000000
H     0.402000000     0.162000000    -0.406000000
H    -0.847000000     0.153000000    -1.685000000
C    -0.951000000    -2.383000000    -2.111000000
H    -1.981000000    -2.080000000    -2.281000000
C    -0.641000000    -3.617000000    -2.714000000
H    -1.391000000    -4.127000000    -3.314000000
C     0.651000000    -4.165000000    -2.485000000
C     1.020000000    -5.410000000    -3.306000000
O     0.242000000    -5.799000000    -4.210000000
O     2.035000000    -5.933000000    -3.093000000
