17
-98.09477
C     1.279000000     2.736000000     0.310000000
H     1.501000000     3.710000000    -0.119000000
C     0.337000000     1.930000000    -0.323000000
H    -0.057000000     2.125000000    -1.317000000
C     0.044000000     0.626000000     0.234000000
C    -0.812000000    -0.368000000    -0.414000000
H    -1.184000000     0.021000000    -1.365000000
H    -0.360000000    -1.335000000    -0.645000000
H    -1.630000000    -0.562000000     0.283000000
C     0.712000000     0.241000000     1.365000000
H     0.505000000    -0.701000000     1.866000000
C     1.571000000     1.074000000     1.993000000
H     1.968000000     0.827000000     2.974000000
C     1.949000000     2.326000000     1.487000000
C     2.807000000     3.270000000     2.240000000
O     3.475000000     2.842000000     3.187000000
O     2.852000000     4.409000000     1.790000000
