17
-87.70732
C     0.804000000     2.424000000     0.657000000
H     0.796000000     3.443000000     0.278000000
C    -0.105000000     1.529000000    -0.014000000
H    -0.793000000     2.028000000    -0.691000000
C    -0.018000000     0.135000000     0.214000000
C    -0.784000000    -0.848000000    -0.653000000
H    -0.203000000    -1.339000000    -1.436000000
H    -1.273000000    -1.522000000     0.053000000
H    -1.644000000    -0.375000000    -1.132000000
C     0.905000000    -0.305000000     1.171000000
H     0.914000000    -1.360000000     1.432000000
C     1.793000000     0.573000000     1.902000000
H     2.541000000     0.191000000     2.591000000
C     1.804000000     1.930000000     1.589000000
C     2.756000000     2.802000000     2.327000000
O     3.756000000     2.325000000     2.810000000
O     2.679000000     3.998000000     2.277000000
