17
-92.70862
C     0.513000000     2.555000000     0.824000000
H     0.428000000     3.602000000     0.547000000
C    -0.302000000     1.591000000     0.150000000
H    -0.972000000     1.927000000    -0.637000000
C    -0.185000000     0.269000000     0.432000000
C    -0.857000000    -0.778000000    -0.412000000
H    -1.550000000    -0.220000000    -1.044000000
H    -0.112000000    -1.265000000    -1.046000000
H    -1.384000000    -1.564000000     0.133000000
C     0.755000000    -0.197000000     1.318000000
H     0.976000000    -1.254000000     1.445000000
C     1.526000000     0.716000000     2.034000000
H     2.258000000     0.335000000     2.742000000
C     1.344000000     2.135000000     1.797000000
C     2.290000000     3.111000000     2.462000000
O     3.073000000     2.671000000     3.267000000
O     2.220000000     4.324000000     2.350000000
