17
-87.76149
C     1.395000000     0.749000000     2.441000000
H     1.401000000     1.029000000     3.492000000
C     0.345000000     0.196000000     1.802000000
H    -0.517000000     0.093000000     2.457000000
C     0.370000000    -0.014000000     0.442000000
C    -0.858000000    -0.593000000    -0.204000000
H    -0.573000000    -1.636000000    -0.357000000
H    -1.782000000    -0.389000000     0.341000000
H    -0.923000000    -0.097000000    -1.175000000
C     1.429000000     0.333000000    -0.291000000
H     1.362000000     0.131000000    -1.357000000
C     2.545000000     0.850000000     0.348000000
H     3.479000000     0.884000000    -0.207000000
C     2.582000000     1.065000000     1.732000000
C     3.874000000     1.640000000     2.379000000
O     4.934000000     1.662000000     1.717000000
O     3.977000000     2.111000000     3.509000000
