17
-88.30543
C     0.894000000    -0.353000000     2.371000000
H     0.830000000    -0.258000000     3.452000000
C    -0.164000000    -0.217000000     1.460000000
H    -1.133000000    -0.016000000     1.910000000
C     0.084000000    -0.152000000     0.105000000
C    -1.052000000     0.137000000    -0.925000000
H    -1.006000000    -0.499000000    -1.812000000
H    -1.974000000    -0.140000000    -0.408000000
H    -1.072000000     1.179000000    -1.249000000
C     1.424000000    -0.234000000    -0.364000000
H     1.495000000    -0.095000000    -1.439000000
C     2.534000000    -0.445000000     0.514000000
H     3.541000000    -0.563000000     0.121000000
C     2.215000000    -0.514000000     1.872000000
C     3.293000000    -0.742000000     2.868000000
O     4.390000000    -1.014000000     2.530000000
O     3.120000000    -0.412000000     4.024000000
