17
-94.92927
C     2.440000000     1.795000000     0.540000000
H     2.609000000     2.833000000     0.262000000
C     1.249000000     1.159000000     0.188000000
H     0.452000000     1.667000000    -0.348000000
C     1.163000000    -0.205000000     0.337000000
C    -0.143000000    -0.968000000     0.109000000
H    -0.300000000    -0.859000000    -0.966000000
H    -0.109000000    -2.002000000     0.458000000
H    -1.030000000    -0.451000000     0.482000000
C     2.171000000    -0.911000000     0.948000000
H     2.173000000    -1.994000000     1.033000000
C     3.238000000    -0.191000000     1.487000000
H     4.060000000    -0.777000000     1.890000000
C     3.445000000     1.149000000     1.236000000
C     4.708000000     1.874000000     1.676000000
O     5.707000000     1.212000000     1.812000000
O     4.625000000     3.035000000     2.088000000
