17
-97.19546
C     0.539000000     0.764000000     2.251000000
H     0.305000000     0.863000000     3.308000000
C    -0.430000000     0.447000000     1.291000000
H    -1.417000000     0.364000000     1.738000000
C    -0.078000000     0.301000000    -0.002000000
C    -1.097000000    -0.221000000    -0.942000000
H    -1.857000000    -0.806000000    -0.421000000
H    -1.623000000     0.646000000    -1.346000000
H    -0.762000000    -0.849000000    -1.771000000
C     1.247000000     0.561000000    -0.372000000
H     1.506000000     0.414000000    -1.418000000
C     2.143000000     1.031000000     0.533000000
H     3.165000000     1.129000000     0.175000000
C     1.778000000     1.263000000     1.881000000
C     2.784000000     1.761000000     2.933000000
O     3.941000000     2.071000000     2.542000000
O     2.477000000     1.817000000     4.126000000
