17
-97.24826
C     1.315000000     2.299000000    -0.412000000
H     1.303000000     3.305000000    -0.823000000
C     0.234000000     1.445000000    -0.489000000
H    -0.711000000     1.690000000    -0.966000000
C     0.235000000     0.212000000     0.046000000
C    -0.972000000    -0.752000000    -0.040000000
H    -1.832000000    -0.384000000     0.524000000
H    -1.312000000    -0.960000000    -1.056000000
H    -0.652000000    -1.745000000     0.281000000
C     1.352000000    -0.144000000     0.839000000
H     1.330000000    -1.091000000     1.373000000
C     2.502000000     0.624000000     0.915000000
H     3.414000000     0.297000000     1.408000000
C     2.489000000     1.926000000     0.330000000
C     3.762000000     2.829000000     0.447000000
O     4.729000000     2.296000000     0.956000000
O     3.654000000     4.017000000     0.214000000
