17
-89.75019
C     0.329000000    -3.735000000    -1.521000000
H     0.945000000    -4.607000000    -1.313000000
C     0.033000000    -2.724000000    -0.610000000
H     0.593000000    -2.614000000     0.315000000
C    -1.006000000    -1.861000000    -0.854000000
C    -1.403000000    -0.900000000     0.265000000
H    -2.346000000    -0.422000000    -0.008000000
H    -1.699000000    -1.445000000     1.164000000
H    -0.658000000    -0.130000000     0.471000000
C    -1.612000000    -1.770000000    -2.096000000
H    -2.285000000    -0.949000000    -2.327000000
C    -1.240000000    -2.707000000    -3.050000000
H    -1.665000000    -2.601000000    -4.045000000
C    -0.248000000    -3.635000000    -2.775000000
C     0.159000000    -4.560000000    -3.951000000
O    -0.534000000    -4.687000000    -4.952000000
O     1.034000000    -5.406000000    -3.874000000
