17
-94.69831
C     1.259000000    -0.551000000     2.345000000
H     1.223000000    -0.639000000     3.428000000
C     0.156000000    -0.337000000     1.534000000
H    -0.810000000    -0.176000000     2.007000000
C     0.242000000    -0.364000000     0.146000000
C    -0.937000000     0.001000000    -0.711000000
H    -1.500000000     0.833000000    -0.285000000
H    -0.504000000     0.265000000    -1.678000000
H    -1.518000000    -0.912000000    -0.856000000
C     1.471000000    -0.781000000    -0.409000000
H     1.456000000    -0.860000000    -1.493000000
C     2.549000000    -1.092000000     0.348000000
H     3.497000000    -1.329000000    -0.127000000
C     2.491000000    -0.958000000     1.750000000
C     3.673000000    -1.062000000     2.645000000
O     4.631000000    -1.661000000     2.249000000
O     3.586000000    -0.779000000     3.862000000
