17
-98.15146
C     0.919000000    -0.455000000     2.241000000
H     0.689000000    -0.559000000     3.298000000
C    -0.136000000    -0.257000000     1.318000000
H    -1.172000000    -0.072000000     1.590000000
C     0.170000000    -0.175000000    -0.038000000
C    -0.907000000    -0.097000000    -1.096000000
H    -1.908000000    -0.419000000    -0.804000000
H    -1.012000000     0.960000000    -1.348000000
H    -0.731000000    -0.593000000    -2.053000000
C     1.471000000    -0.392000000    -0.417000000
H     1.722000000    -0.382000000    -1.475000000
C     2.484000000    -0.578000000     0.465000000
H     3.503000000    -0.567000000     0.088000000
C     2.246000000    -0.664000000     1.841000000
C     3.369000000    -0.714000000     2.863000000
O     4.567000000    -0.627000000     2.529000000
O     3.080000000    -0.968000000     4.022000000
