17
-94.67852
C     1.154000000    -0.415000000     2.075000000
H     1.027000000    -0.467000000     3.154000000
C     0.027000000    -0.051000000     1.322000000
H    -0.941000000     0.189000000     1.754000000
C     0.170000000    -0.154000000    -0.090000000
C    -1.067000000     0.047000000    -0.936000000
H    -1.377000000    -0.959000000    -1.226000000
H    -1.834000000     0.548000000    -0.343000000
H    -0.955000000     0.617000000    -1.861000000
C     1.410000000    -0.307000000    -0.704000000
H     1.526000000    -0.378000000    -1.783000000
C     2.551000000    -0.585000000     0.062000000
H     3.453000000    -0.886000000    -0.466000000
C     2.422000000    -0.604000000     1.481000000
C     3.573000000    -0.817000000     2.366000000
O     4.605000000    -1.187000000     1.922000000
O     3.449000000    -0.594000000     3.574000000
