17
-96.07013
C     1.305000000    -0.026000000     2.586000000
H     1.161000000     0.134000000     3.652000000
C     0.200000000     0.165000000     1.776000000
H    -0.738000000     0.489000000     2.219000000
C     0.332000000    -0.016000000     0.401000000
C    -0.891000000     0.229000000    -0.433000000
H    -0.992000000    -0.555000000    -1.186000000
H    -1.841000000     0.211000000     0.105000000
H    -0.813000000     1.205000000    -0.917000000
C     1.587000000    -0.212000000    -0.155000000
H     1.784000000    -0.202000000    -1.224000000
C     2.713000000    -0.343000000     0.664000000
H     3.681000000    -0.613000000     0.250000000
C     2.573000000    -0.291000000     2.051000000
C     3.723000000    -0.366000000     2.939000000
O     4.826000000    -0.652000000     2.536000000
O     3.567000000    -0.223000000     4.133000000
