17
-94.01566
C     1.929000000    -1.007000000     2.463000000
H     1.890000000    -1.465000000     3.448000000
C     0.777000000    -0.679000000     1.774000000
H    -0.126000000    -0.522000000     2.358000000
C     0.790000000    -0.317000000     0.435000000
C    -0.450000000     0.079000000    -0.372000000
H    -0.729000000    -0.575000000    -1.202000000
H    -1.335000000     0.140000000     0.264000000
H    -0.458000000     1.083000000    -0.801000000
C     2.019000000    -0.293000000    -0.276000000
H     1.977000000    -0.073000000    -1.340000000
C     3.215000000    -0.570000000     0.450000000
H     4.210000000    -0.610000000     0.014000000
C     3.132000000    -0.915000000     1.803000000
C     4.350000000    -1.412000000     2.513000000
O     5.434000000    -1.341000000     1.987000000
O     4.268000000    -1.840000000     3.641000000
