17
-99.50337
C     1.716000000     1.318000000     2.518000000
H     1.796000000     1.660000000     3.547000000
C     0.471000000     0.938000000     1.941000000
H    -0.415000000     0.994000000     2.568000000
C     0.477000000     0.439000000     0.640000000
C    -0.880000000    -0.014000000     0.068000000
H    -1.657000000     0.159000000     0.816000000
H    -1.147000000     0.542000000    -0.833000000
H    -0.808000000    -1.084000000    -0.136000000
C     1.641000000     0.063000000     0.030000000
H     1.539000000    -0.430000000    -0.933000000
C     2.851000000     0.396000000     0.541000000
H     3.787000000     0.176000000     0.036000000
C     2.892000000     1.028000000     1.836000000
C     4.248000000     1.200000000     2.518000000
O     5.227000000     0.672000000     2.040000000
O     4.287000000     1.934000000     3.530000000
