17
-88.98418
C     1.243000000     0.002000000     2.406000000
H     1.194000000     0.048000000     3.491000000
C     0.037000000     0.123000000     1.749000000
H    -0.833000000     0.376000000     2.351000000
C    -0.076000000    -0.129000000     0.412000000
C    -1.371000000    -0.011000000    -0.347000000
H    -1.943000000    -0.941000000    -0.351000000
H    -1.926000000     0.906000000    -0.140000000
H    -1.190000000     0.028000000    -1.423000000
C     1.102000000    -0.437000000    -0.324000000
H     1.056000000    -0.597000000    -1.398000000
C     2.382000000    -0.421000000     0.312000000
H     3.257000000    -0.701000000    -0.270000000
C     2.465000000    -0.318000000     1.742000000
C     3.607000000    -0.525000000     2.608000000
O     4.655000000    -0.860000000     2.096000000
O     3.517000000    -0.319000000     3.776000000
