17
-92.41011
C     1.365000000    -1.902000000     2.109000000
H     1.352000000    -2.109000000     3.176000000
C     0.498000000    -0.979000000     1.477000000
H    -0.355000000    -0.605000000     2.037000000
C     0.593000000    -0.605000000     0.172000000
C    -0.272000000     0.474000000    -0.469000000
H    -1.328000000     0.199000000    -0.508000000
H    -0.271000000     1.413000000     0.089000000
H    -0.012000000     0.691000000    -1.507000000
C     1.750000000    -0.938000000    -0.519000000
H     1.978000000    -0.526000000    -1.498000000
C     2.656000000    -1.897000000     0.083000000
H     3.592000000    -2.024000000    -0.454000000
C     2.453000000    -2.308000000     1.407000000
C     3.532000000    -3.163000000     2.090000000
O     4.414000000    -3.581000000     1.376000000
O     3.442000000    -3.531000000     3.246000000
