17
-93.20278
C     0.830000000    -0.270000000     2.582000000
H     0.763000000    -0.180000000     3.663000000
C    -0.164000000     0.178000000     1.682000000
H    -1.012000000     0.600000000     2.216000000
C    -0.096000000    -0.076000000     0.325000000
C    -1.245000000     0.237000000    -0.482000000
H    -1.010000000     1.245000000    -0.830000000
H    -1.536000000    -0.451000000    -1.278000000
H    -2.131000000     0.305000000     0.152000000
C     1.089000000    -0.594000000    -0.197000000
H     1.248000000    -0.774000000    -1.257000000
C     2.130000000    -0.975000000     0.637000000
H     3.033000000    -1.416000000     0.223000000
C     1.955000000    -0.909000000     2.032000000
C     3.103000000    -1.376000000     2.896000000
O     4.114000000    -1.867000000     2.365000000
O     3.146000000    -1.134000000     4.064000000
