17
-93.80978
C     1.506000000    -2.039000000     1.696000000
H     1.416000000    -2.544000000     2.654000000
C     0.482000000    -1.268000000     1.138000000
H    -0.494000000    -1.204000000     1.613000000
C     0.558000000    -0.790000000    -0.127000000
C    -0.558000000     0.029000000    -0.662000000
H    -0.543000000     0.244000000    -1.732000000
H    -1.518000000    -0.473000000    -0.526000000
H    -0.612000000     0.913000000    -0.023000000
C     1.804000000    -0.811000000    -0.741000000
H     1.899000000    -0.301000000    -1.696000000
C     2.862000000    -1.470000000    -0.182000000
H     3.807000000    -1.523000000    -0.716000000
C     2.726000000    -2.094000000     1.035000000
C     3.888000000    -2.825000000     1.586000000
O     4.895000000    -3.015000000     0.912000000
O     3.847000000    -3.178000000     2.727000000
