17
-89.46758
C     0.405000000    -1.083000000     2.296000000
H     0.214000000    -1.105000000     3.366000000
C    -0.475000000    -0.454000000     1.480000000
H    -1.405000000    -0.073000000     1.893000000
C    -0.176000000    -0.393000000     0.127000000
C    -1.200000000     0.133000000    -0.868000000
H    -2.182000000    -0.337000000    -0.778000000
H    -1.275000000     1.219000000    -0.776000000
H    -0.809000000     0.094000000    -1.887000000
C     1.108000000    -0.750000000    -0.322000000
H     1.384000000    -0.645000000    -1.368000000
C     1.941000000    -1.448000000     0.505000000
H     2.785000000    -1.986000000     0.081000000
C     1.610000000    -1.648000000     1.806000000
C     2.559000000    -2.358000000     2.683000000
O     3.683000000    -2.745000000     2.386000000
O     2.245000000    -2.344000000     3.843000000
