17
-95.14226
C     1.326000000    -0.749000000     2.325000000
H     1.328000000    -0.703000000     3.411000000
C     0.193000000    -0.323000000     1.683000000
H    -0.554000000     0.129000000     2.330000000
C     0.124000000    -0.398000000     0.296000000
C    -0.969000000     0.441000000    -0.351000000
H    -0.662000000     1.486000000    -0.272000000
H    -1.089000000     0.257000000    -1.421000000
H    -1.937000000     0.347000000     0.146000000
C     1.221000000    -0.948000000    -0.358000000
H     1.178000000    -0.962000000    -1.444000000
C     2.320000000    -1.507000000     0.305000000
H     3.079000000    -1.917000000    -0.356000000
C     2.365000000    -1.406000000     1.677000000
C     3.441000000    -1.985000000     2.499000000
O     4.617000000    -1.998000000     2.021000000
O     3.228000000    -2.332000000     3.623000000
