17
-90.54602
C     1.314000000    -1.368000000     2.208000000
H     1.169000000    -1.542000000     3.271000000
C     0.278000000    -0.765000000     1.545000000
H    -0.605000000    -0.441000000     2.091000000
C     0.215000000    -0.649000000     0.177000000
C    -1.009000000    -0.267000000    -0.551000000
H    -1.827000000    -0.103000000     0.153000000
H    -0.824000000     0.729000000    -0.959000000
H    -1.233000000    -0.861000000    -1.440000000
C     1.307000000    -1.144000000    -0.603000000
H     1.352000000    -1.101000000    -1.689000000
C     2.436000000    -1.655000000     0.104000000
H     3.272000000    -2.045000000    -0.471000000
C     2.444000000    -1.844000000     1.519000000
C     3.599000000    -2.608000000     2.096000000
O     4.462000000    -3.060000000     1.357000000
O     3.873000000    -2.567000000     3.277000000
