17
-96.82211
C     1.831000000    -1.111000000     2.135000000
H     1.958000000    -1.571000000     3.111000000
C     0.589000000    -0.616000000     1.750000000
H    -0.323000000    -0.780000000     2.318000000
C     0.437000000    -0.160000000     0.438000000
C    -0.877000000     0.395000000    -0.036000000
H    -0.981000000     1.445000000     0.244000000
H    -0.918000000     0.314000000    -1.124000000
H    -1.688000000    -0.224000000     0.353000000
C     1.514000000     0.010000000    -0.387000000
H     1.455000000     0.401000000    -1.399000000
C     2.749000000    -0.438000000     0.055000000
H     3.644000000    -0.316000000    -0.549000000
C     2.913000000    -0.982000000     1.326000000
C     4.274000000    -1.361000000     1.855000000
O     5.325000000    -0.991000000     1.278000000
O     4.352000000    -2.193000000     2.716000000
