17
-92.77334
C     1.468000000    -1.000000000     1.995000000
H     1.532000000    -1.300000000     3.038000000
C     0.225000000    -0.484000000     1.554000000
H    -0.635000000    -0.459000000     2.219000000
C     0.080000000    -0.165000000     0.194000000
C    -1.238000000     0.159000000    -0.456000000
H    -1.518000000     1.184000000    -0.202000000
H    -1.234000000     0.120000000    -1.547000000
H    -2.029000000    -0.542000000    -0.181000000
C     1.141000000    -0.197000000    -0.614000000
H     1.047000000     0.142000000    -1.643000000
C     2.390000000    -0.542000000    -0.150000000
H     3.291000000    -0.487000000    -0.756000000
C     2.557000000    -1.068000000     1.145000000
C     3.916000000    -1.727000000     1.525000000
O     4.780000000    -1.850000000     0.713000000
O     4.161000000    -1.840000000     2.708000000
