17
-96.78503
C     0.585000000    -0.284000000     2.945000000
H     0.385000000    -0.298000000     4.014000000
C    -0.427000000    -0.325000000     2.030000000
H    -1.442000000    -0.472000000     2.392000000
C    -0.123000000    -0.305000000     0.644000000
C    -1.147000000    -0.512000000    -0.456000000
H    -0.968000000    -1.461000000    -0.967000000
H    -2.160000000    -0.480000000    -0.050000000
H    -1.032000000     0.380000000    -1.075000000
C     1.214000000    -0.295000000     0.218000000
H     1.501000000    -0.287000000    -0.831000000
C     2.249000000    -0.185000000     1.097000000
H     3.286000000    -0.068000000     0.795000000
C     1.977000000    -0.241000000     2.497000000
C     3.090000000    -0.154000000     3.471000000
O     4.244000000     0.221000000     3.202000000
O     2.759000000    -0.339000000     4.643000000
