17
-90.71517
C     1.774000000    -0.733000000     2.374000000
H     1.788000000    -0.562000000     3.447000000
C     0.666000000    -0.494000000     1.566000000
H    -0.284000000    -0.107000000     1.924000000
C     0.809000000    -0.567000000     0.226000000
C    -0.427000000    -0.328000000    -0.579000000
H    -1.203000000    -1.084000000    -0.445000000
H    -0.971000000     0.603000000    -0.409000000
H    -0.268000000    -0.327000000    -1.659000000
C     1.965000000    -1.016000000    -0.420000000
H     2.142000000    -1.108000000    -1.489000000
C     3.016000000    -1.357000000     0.353000000
H     3.917000000    -1.673000000    -0.166000000
C     2.984000000    -1.177000000     1.761000000
C     4.222000000    -1.410000000     2.482000000
O     5.303000000    -1.360000000     1.951000000
O     4.090000000    -1.730000000     3.651000000
