17
-98.76647
C     1.103000000    -0.245000000     2.569000000
H     0.960000000    -0.511000000     3.613000000
C     0.021000000    -0.205000000     1.656000000
H    -0.984000000    -0.298000000     2.060000000
C     0.198000000    -0.062000000     0.283000000
C    -0.898000000    -0.036000000    -0.714000000
H    -1.941000000    -0.069000000    -0.394000000
H    -0.720000000     0.793000000    -1.402000000
H    -0.867000000    -0.956000000    -1.302000000
C     1.491000000     0.029000000    -0.277000000
H     1.645000000     0.180000000    -1.343000000
C     2.575000000    -0.064000000     0.637000000
H     3.569000000     0.015000000     0.205000000
C     2.389000000    -0.138000000     2.056000000
C     3.580000000    -0.303000000     3.020000000
O     4.779000000    -0.312000000     2.694000000
O     3.301000000    -0.402000000     4.225000000
