17
-96.10831
C     1.018000000     0.173000000     2.084000000
H     1.047000000     0.339000000     3.158000000
C    -0.171000000     0.163000000     1.352000000
H    -1.097000000     0.305000000     1.903000000
C    -0.222000000     0.087000000    -0.009000000
C    -1.505000000     0.271000000    -0.792000000
H    -1.397000000    -0.100000000    -1.813000000
H    -2.340000000    -0.149000000    -0.226000000
H    -1.593000000     1.351000000    -0.925000000
C     0.978000000     0.050000000    -0.719000000
H     1.035000000     0.139000000    -1.801000000
C     2.173000000     0.110000000    -0.060000000
H     3.095000000    -0.005000000    -0.624000000
C     2.203000000     0.169000000     1.318000000
C     3.551000000     0.214000000     1.978000000
O     4.542000000     0.391000000     1.264000000
O     3.766000000     0.040000000     3.185000000
