17
-95.23546
C     1.098000000    -0.557000000     2.186000000
H     1.201000000    -0.811000000     3.238000000
C    -0.077000000    -0.015000000     1.511000000
H    -1.024000000     0.189000000     2.004000000
C    -0.089000000     0.164000000     0.124000000
C    -1.353000000     0.518000000    -0.565000000
H    -1.225000000     1.335000000    -1.279000000
H    -1.548000000    -0.371000000    -1.169000000
H    -2.125000000     0.700000000     0.185000000
C     1.071000000    -0.087000000    -0.645000000
H     0.959000000     0.126000000    -1.705000000
C     2.234000000    -0.477000000     0.035000000
H     3.177000000    -0.521000000    -0.504000000
C     2.234000000    -0.778000000     1.414000000
C     3.521000000    -1.389000000     1.931000000
O     4.480000000    -1.539000000     1.218000000
O     3.524000000    -1.802000000     3.076000000
