17
-97.33755
C     0.594000000    -2.637000000    -1.332000000
H     1.240000000    -3.501000000    -1.196000000
C     0.712000000    -1.470000000    -0.536000000
H     1.557000000    -1.448000000     0.147000000
C    -0.157000000    -0.375000000    -0.694000000
C     0.055000000     0.827000000     0.184000000
H    -0.835000000     1.282000000     0.625000000
H     0.685000000     0.596000000     1.046000000
H     0.424000000     1.646000000    -0.437000000
C    -1.149000000    -0.414000000    -1.650000000
H    -1.816000000     0.439000000    -1.739000000
C    -1.248000000    -1.551000000    -2.476000000
H    -2.035000000    -1.461000000    -3.221000000
C    -0.489000000    -2.683000000    -2.204000000
C    -0.711000000    -3.950000000    -3.084000000
O    -1.215000000    -3.821000000    -4.162000000
O    -0.549000000    -5.036000000    -2.565000000
