17
-91.93589
C     0.625000000    -1.786000000     1.673000000
H     0.466000000    -2.191000000     2.669000000
C    -0.306000000    -0.937000000     1.039000000
H    -1.208000000    -0.678000000     1.588000000
C     0.015000000    -0.334000000    -0.180000000
C    -1.003000000     0.536000000    -0.888000000
H    -1.823000000     0.686000000    -0.184000000
H    -0.621000000     1.537000000    -1.097000000
H    -1.350000000     0.007000000    -1.778000000
C     1.232000000    -0.529000000    -0.683000000
H     1.430000000     0.012000000    -1.605000000
C     2.200000000    -1.330000000    -0.014000000
H     3.219000000    -1.332000000    -0.393000000
C     1.857000000    -2.063000000     1.099000000
C     2.852000000    -2.901000000     1.744000000
O     3.967000000    -3.101000000     1.207000000
O     2.457000000    -3.546000000     2.668000000
