17
-93.66386
C     0.521000000    -1.805000000     2.867000000
H     0.236000000    -1.923000000     3.909000000
C    -0.010000000    -0.785000000     2.057000000
H    -0.781000000    -0.092000000     2.383000000
C     0.478000000    -0.674000000     0.757000000
C    -0.034000000     0.370000000    -0.206000000
H     0.619000000     1.246000000    -0.200000000
H    -0.102000000    -0.085000000    -1.197000000
H    -1.056000000     0.672000000     0.030000000
C     1.421000000    -1.572000000     0.356000000
H     1.805000000    -1.475000000    -0.656000000
C     2.047000000    -2.545000000     1.228000000
H     2.828000000    -3.241000000     0.933000000
C     1.564000000    -2.672000000     2.530000000
C     2.150000000    -3.690000000     3.468000000
O     3.211000000    -4.163000000     3.214000000
O     1.646000000    -3.903000000     4.561000000
