17
-84.00215
C     0.054000000    -1.493000000     2.918000000
H    -0.240000000    -1.376000000     3.958000000
C    -0.613000000    -0.827000000     1.900000000
H    -1.410000000    -0.133000000     2.152000000
C    -0.153000000    -0.788000000     0.585000000
C    -0.775000000     0.084000000    -0.545000000
H    -0.093000000     0.867000000    -0.884000000
H    -1.099000000    -0.425000000    -1.455000000
H    -1.658000000     0.605000000    -0.168000000
C     1.004000000    -1.471000000     0.243000000
H     1.368000000    -1.454000000    -0.781000000
C     1.708000000    -2.159000000     1.296000000
H     2.677000000    -2.640000000     1.191000000
C     1.195000000    -2.249000000     2.594000000
C     1.922000000    -3.028000000     3.629000000
O     2.812000000    -3.793000000     3.379000000
O     1.649000000    -2.851000000     4.743000000
