17
-86.89602
C     1.136000000    -1.409000000     2.763000000
H     0.810000000    -1.474000000     3.798000000
C     0.309000000    -0.720000000     1.868000000
H    -0.513000000    -0.118000000     2.248000000
C     0.574000000    -0.585000000     0.503000000
C    -0.230000000     0.286000000    -0.385000000
H    -1.219000000     0.466000000     0.041000000
H     0.259000000     1.254000000    -0.512000000
H    -0.360000000    -0.101000000    -1.398000000
C     1.825000000    -0.989000000     0.098000000
H     2.229000000    -0.709000000    -0.871000000
C     2.712000000    -1.724000000     0.941000000
H     3.588000000    -2.194000000     0.502000000
C     2.367000000    -1.970000000     2.289000000
C     3.207000000    -2.661000000     3.247000000
O     4.347000000    -2.892000000     2.975000000
O     2.844000000    -2.832000000     4.376000000
