17
-93.87300
C     0.590000000    -1.362000000     2.002000000
H     0.392000000    -1.833000000     2.961000000
C    -0.312000000    -0.653000000     1.295000000
H    -1.306000000    -0.393000000     1.650000000
C     0.016000000    -0.227000000    -0.007000000
C    -1.077000000     0.348000000    -0.869000000
H    -0.723000000     1.335000000    -1.173000000
H    -1.242000000    -0.270000000    -1.753000000
H    -2.012000000     0.471000000    -0.318000000
C     1.227000000    -0.489000000    -0.562000000
H     1.377000000    -0.178000000    -1.593000000
C     2.134000000    -1.273000000     0.205000000
H     3.045000000    -1.635000000    -0.266000000
C     1.837000000    -1.705000000     1.488000000
C     2.711000000    -2.688000000     2.190000000
O     3.769000000    -2.955000000     1.697000000
O     2.470000000    -3.022000000     3.344000000
