17
-94.54738
C     1.332000000    -1.686000000     2.538000000
H     1.095000000    -1.769000000     3.596000000
C     0.490000000    -0.790000000     1.905000000
H    -0.225000000    -0.155000000     2.422000000
C     0.613000000    -0.653000000     0.490000000
C    -0.234000000     0.365000000    -0.256000000
H     0.008000000     0.258000000    -1.316000000
H    -1.311000000     0.223000000    -0.152000000
H    -0.084000000     1.412000000     0.016000000
C     1.560000000    -1.279000000    -0.252000000
H     1.686000000    -1.183000000    -1.327000000
C     2.435000000    -2.146000000     0.394000000
H     3.080000000    -2.804000000    -0.184000000
C     2.345000000    -2.331000000     1.797000000
C     3.313000000    -3.189000000     2.434000000
O     4.407000000    -3.410000000     1.914000000
O     3.016000000    -3.641000000     3.540000000
