17
-95.35217
C     1.974000000    -2.472000000     0.822000000
H     2.073000000    -3.545000000     0.962000000
C     0.785000000    -1.840000000     0.484000000
H    -0.145000000    -2.371000000     0.298000000
C     0.764000000    -0.453000000     0.445000000
C    -0.487000000     0.258000000     0.166000000
H    -0.258000000     1.314000000     0.007000000
H    -0.901000000    -0.001000000    -0.811000000
H    -1.233000000     0.237000000     0.963000000
C     1.930000000     0.256000000     0.557000000
H     1.984000000     1.326000000     0.369000000
C     3.147000000    -0.396000000     0.774000000
H     4.065000000     0.154000000     0.964000000
C     3.191000000    -1.744000000     1.053000000
C     4.430000000    -2.401000000     1.513000000
O     5.377000000    -1.681000000     1.716000000
O     4.449000000    -3.576000000     1.893000000
