17
-95.48173
C     0.747000000    -2.155000000    -1.950000000
H     1.530000000    -2.901000000    -2.056000000
C     0.827000000    -1.175000000    -0.950000000
H     1.692000000    -1.025000000    -0.309000000
C    -0.310000000    -0.385000000    -0.679000000
C    -0.217000000     0.702000000     0.375000000
H    -0.740000000     1.609000000     0.068000000
H    -0.582000000     0.394000000     1.357000000
H     0.809000000     1.058000000     0.488000000
C    -1.523000000    -0.611000000    -1.329000000
H    -2.378000000     0.009000000    -1.074000000
C    -1.621000000    -1.627000000    -2.345000000
H    -2.592000000    -1.875000000    -2.765000000
C    -0.436000000    -2.395000000    -2.642000000
C    -0.482000000    -3.406000000    -3.776000000
O    -1.498000000    -3.464000000    -4.359000000
O     0.467000000    -4.162000000    -4.051000000
