17
-97.60334
C     1.152000000    -1.459000000     2.188000000
H     0.802000000    -1.956000000     3.089000000
C     0.240000000    -0.759000000     1.373000000
H    -0.794000000    -0.609000000     1.672000000
C     0.653000000    -0.256000000     0.114000000
C    -0.377000000     0.448000000    -0.706000000
H    -1.278000000    -0.169000000    -0.679000000
H    -0.678000000     1.468000000    -0.459000000
H    -0.078000000     0.379000000    -1.754000000
C     1.949000000    -0.488000000    -0.294000000
H     2.301000000    -0.156000000    -1.268000000
C     2.892000000    -1.126000000     0.517000000
H     3.929000000    -1.266000000     0.223000000
C     2.523000000    -1.534000000     1.750000000
C     3.481000000    -2.345000000     2.541000000
O     4.420000000    -2.893000000     1.970000000
O     3.271000000    -2.556000000     3.731000000
