17
-85.91646
C     0.992000000    -1.040000000     2.325000000
H     0.777000000    -1.168000000     3.383000000
C     0.076000000    -0.384000000     1.547000000
H    -0.828000000    -0.033000000     2.037000000
C     0.241000000    -0.253000000     0.199000000
C    -0.828000000     0.417000000    -0.600000000
H    -0.666000000     0.122000000    -1.639000000
H    -1.820000000     0.098000000    -0.273000000
H    -0.799000000     1.491000000    -0.407000000
C     1.360000000    -0.788000000    -0.389000000
H     1.598000000    -0.625000000    -1.437000000
C     2.340000000    -1.410000000     0.354000000
H     3.286000000    -1.753000000    -0.056000000
C     2.137000000    -1.557000000     1.760000000
C     3.163000000    -2.301000000     2.498000000
O     4.121000000    -2.793000000     1.919000000
O     3.151000000    -2.167000000     3.644000000
