17
-88.72620
C     2.840000000    -2.225000000     2.105000000
H     3.163000000    -3.100000000     2.663000000
C     1.600000000    -2.091000000     1.479000000
H     0.946000000    -2.956000000     1.555000000
C     1.241000000    -0.843000000     0.977000000
C    -0.170000000    -0.513000000     0.611000000
H    -0.455000000    -1.463000000     0.154000000
H    -0.801000000    -0.266000000     1.468000000
H    -0.227000000     0.160000000    -0.247000000
C     2.177000000     0.158000000     0.860000000
H     1.920000000     1.156000000     0.513000000
C     3.470000000     0.017000000     1.486000000
H     4.113000000     0.893000000     1.484000000
C     3.787000000    -1.243000000     1.983000000
C     5.198000000    -1.512000000     2.381000000
O     6.038000000    -0.641000000     2.100000000
O     5.462000000    -2.354000000     3.204000000
