17
-99.58147
C     2.188000000    -1.743000000     1.715000000
H     2.420000000    -2.292000000     2.624000000
C     0.876000000    -1.436000000     1.333000000
H     0.005000000    -1.719000000     1.917000000
C     0.732000000    -0.773000000     0.126000000
C    -0.652000000    -0.331000000    -0.328000000
H    -1.205000000    -1.256000000    -0.506000000
H    -1.127000000     0.168000000     0.519000000
H    -0.711000000     0.280000000    -1.230000000
C     1.821000000    -0.406000000    -0.636000000
H     1.646000000     0.169000000    -1.542000000
C     3.110000000    -0.672000000    -0.217000000
H     3.890000000    -0.235000000    -0.835000000
C     3.330000000    -1.383000000     0.953000000
C     4.716000000    -1.590000000     1.507000000
O     5.691000000    -1.071000000     0.935000000
O     4.847000000    -2.138000000     2.566000000
