17
-94.05954
C     0.854000000    -2.527000000    -0.595000000
H     1.491000000    -3.375000000    -0.357000000
C     0.982000000    -1.384000000     0.188000000
H     1.751000000    -1.318000000     0.954000000
C     0.166000000    -0.264000000    -0.029000000
C     0.248000000     0.991000000     0.744000000
H     1.265000000     1.259000000     1.038000000
H    -0.118000000     1.892000000     0.247000000
H    -0.340000000     0.877000000     1.657000000
C    -0.902000000    -0.420000000    -0.959000000
H    -1.607000000     0.407000000    -0.976000000
C    -0.997000000    -1.586000000    -1.689000000
H    -1.810000000    -1.618000000    -2.411000000
C    -0.169000000    -2.651000000    -1.558000000
C    -0.225000000    -3.904000000    -2.376000000
O    -1.133000000    -4.117000000    -3.122000000
O     0.619000000    -4.760000000    -2.249000000
