17
-98.30695
C     0.556000000    -1.341000000     2.297000000
H     0.365000000    -1.694000000     3.307000000
C    -0.395000000    -0.764000000     1.417000000
H    -1.369000000    -0.423000000     1.758000000
C    -0.019000000    -0.452000000     0.092000000
C    -1.026000000     0.155000000    -0.917000000
H    -1.731000000    -0.563000000    -1.342000000
H    -1.682000000     0.811000000    -0.341000000
H    -0.525000000     0.724000000    -1.702000000
C     1.317000000    -0.702000000    -0.325000000
H     1.650000000    -0.446000000    -1.328000000
C     2.233000000    -1.246000000     0.531000000
H     3.244000000    -1.374000000     0.152000000
C     1.887000000    -1.596000000     1.842000000
C     2.917000000    -2.183000000     2.745000000
O     4.058000000    -2.426000000     2.239000000
O     2.527000000    -2.610000000     3.791000000
