17
-93.83570
C     0.885000000    -1.735000000     1.616000000
H     0.589000000    -2.138000000     2.580000000
C    -0.092000000    -0.979000000     0.991000000
H    -1.054000000    -0.902000000     1.492000000
C     0.171000000    -0.338000000    -0.194000000
C    -0.783000000     0.514000000    -0.824000000
H    -1.805000000     0.290000000    -0.513000000
H    -0.632000000     1.559000000    -0.547000000
H    -0.890000000     0.474000000    -1.910000000
C     1.473000000    -0.522000000    -0.750000000
H     1.833000000     0.014000000    -1.624000000
C     2.419000000    -1.310000000    -0.111000000
H     3.450000000    -1.355000000    -0.453000000
C     2.145000000    -1.963000000     1.069000000
C     3.311000000    -2.647000000     1.820000000
O     4.274000000    -3.017000000     1.165000000
O     3.083000000    -3.070000000     2.920000000
