17
-93.98440
C     1.504000000    -2.138000000     1.412000000
H     1.341000000    -2.883000000     2.187000000
C     0.437000000    -1.403000000     0.908000000
H    -0.597000000    -1.544000000     1.214000000
C     0.729000000    -0.388000000    -0.046000000
C    -0.359000000     0.462000000    -0.587000000
H    -0.774000000     0.043000000    -1.506000000
H    -1.221000000     0.495000000     0.083000000
H     0.046000000     1.465000000    -0.736000000
C     2.029000000    -0.172000000    -0.455000000
H     2.163000000     0.619000000    -1.189000000
C     3.128000000    -0.979000000     0.075000000
H     4.142000000    -0.775000000    -0.259000000
C     2.828000000    -1.926000000     1.070000000
C     3.867000000    -2.720000000     1.845000000
O     5.029000000    -2.334000000     1.686000000
O     3.657000000    -3.464000000     2.767000000
