17
-87.92747
C     0.872000000    -1.224000000     1.904000000
H     0.732000000    -1.453000000     2.957000000
C    -0.122000000    -0.577000000     1.153000000
H    -1.080000000    -0.422000000     1.643000000
C    -0.034000000    -0.267000000    -0.230000000
C    -1.128000000     0.397000000    -0.962000000
H    -1.304000000    -0.189000000    -1.867000000
H    -2.102000000     0.372000000    -0.469000000
H    -0.879000000     1.445000000    -1.145000000
C     1.180000000    -0.378000000    -0.819000000
H     1.338000000    -0.145000000    -1.869000000
C     2.220000000    -1.105000000    -0.193000000
H     3.167000000    -1.323000000    -0.681000000
C     2.019000000    -1.492000000     1.136000000
C     3.068000000    -2.295000000     1.791000000
O     4.120000000    -2.582000000     1.240000000
O     3.016000000    -2.716000000     2.947000000
