17
-98.41761
C     1.043000000    -2.165000000     1.832000000
H     0.859000000    -2.781000000     2.709000000
C     0.012000000    -1.353000000     1.366000000
H    -0.964000000    -1.303000000     1.842000000
C     0.282000000    -0.620000000     0.249000000
C    -0.795000000     0.387000000    -0.215000000
H    -0.958000000     1.139000000     0.559000000
H    -0.556000000     1.001000000    -1.086000000
H    -1.745000000    -0.132000000    -0.361000000
C     1.445000000    -0.783000000    -0.479000000
H     1.569000000    -0.206000000    -1.391000000
C     2.476000000    -1.616000000     0.030000000
H     3.469000000    -1.702000000    -0.404000000
C     2.309000000    -2.321000000     1.253000000
C     3.428000000    -3.271000000     1.678000000
O     4.511000000    -3.202000000     1.127000000
O     3.275000000    -4.028000000     2.664000000
