17
-98.84012
C     1.996000000    -2.967000000     2.005000000
H     1.206000000    -3.698000000     2.158000000
C     1.514000000    -1.713000000     1.663000000
H     0.485000000    -1.443000000     1.437000000
C     2.422000000    -0.663000000     1.523000000
C     1.953000000     0.690000000     1.077000000
H     2.595000000     1.039000000     0.265000000
H     0.909000000     0.694000000     0.758000000
H     2.095000000     1.368000000     1.921000000
C     3.750000000    -0.838000000     1.817000000
H     4.398000000     0.033000000     1.765000000
C     4.226000000    -2.086000000     2.229000000
H     5.270000000    -2.142000000     2.528000000
C     3.351000000    -3.208000000     2.329000000
C     3.880000000    -4.512000000     2.784000000
O     5.107000000    -4.763000000     2.735000000
O     3.136000000    -5.249000000     3.421000000
