17
-100.70566
C     0.349000000    -2.529000000    -0.290000000
H     0.801000000    -3.396000000     0.184000000
C     0.494000000    -1.301000000     0.350000000
H     1.085000000    -1.233000000     1.260000000
C     0.006000000    -0.157000000    -0.285000000
C     0.243000000     1.157000000     0.400000000
H     0.107000000     1.162000000     1.483000000
H     1.279000000     1.487000000     0.294000000
H    -0.232000000     2.031000000    -0.053000000
C    -0.627000000    -0.227000000    -1.550000000
H    -1.126000000     0.626000000    -2.003000000
C    -0.716000000    -1.481000000    -2.179000000
H    -1.188000000    -1.548000000    -3.156000000
C    -0.206000000    -2.625000000    -1.579000000
C    -0.264000000    -3.967000000    -2.259000000
O    -0.887000000    -4.026000000    -3.268000000
O     0.295000000    -4.946000000    -1.732000000
