17
-96.33854
C     0.043000000    -1.759000000     2.058000000
H    -0.511000000    -2.232000000     2.865000000
C    -0.494000000    -0.974000000     1.080000000
H    -1.546000000    -0.704000000     1.039000000
C     0.230000000    -0.471000000     0.024000000
C    -0.388000000     0.338000000    -1.050000000
H     0.092000000     0.041000000    -1.985000000
H    -1.458000000     0.154000000    -1.166000000
H    -0.196000000     1.400000000    -0.886000000
C     1.575000000    -0.830000000    -0.015000000
H     2.065000000    -0.416000000    -0.893000000
C     2.149000000    -1.674000000     0.917000000
H     3.214000000    -1.875000000     0.839000000
C     1.389000000    -2.165000000     1.969000000
C     1.991000000    -2.993000000     3.033000000
O     3.187000000    -3.074000000     3.047000000
O     1.281000000    -3.592000000     3.824000000
