17
-96.84665
C    -0.662000000    -2.193000000     0.074000000
H    -0.602000000    -3.172000000     0.542000000
C    -0.087000000    -1.038000000     0.719000000
H     0.555000000    -1.256000000     1.568000000
C    -0.177000000     0.189000000     0.118000000
C     0.465000000     1.447000000     0.681000000
H     0.741000000     1.463000000     1.737000000
H     1.445000000     1.540000000     0.207000000
H    -0.208000000     2.279000000     0.465000000
C    -1.106000000     0.322000000    -0.974000000
H    -1.190000000     1.272000000    -1.496000000
C    -1.637000000    -0.788000000    -1.577000000
H    -2.103000000    -0.691000000    -2.555000000
C    -1.371000000    -2.068000000    -1.116000000
C    -1.947000000    -3.277000000    -1.837000000
O    -2.758000000    -3.002000000    -2.738000000
O    -1.872000000    -4.425000000    -1.329000000
