17
-93.56197
C     1.876000000    -2.191000000    -0.276000000
H     2.090000000    -3.176000000    -0.683000000
C     0.647000000    -1.663000000    -0.515000000
H    -0.107000000    -2.122000000    -1.149000000
C     0.397000000    -0.350000000    -0.165000000
C    -0.898000000     0.213000000    -0.483000000
H    -0.812000000     1.163000000    -1.013000000
H    -1.569000000    -0.446000000    -1.038000000
H    -1.460000000     0.486000000     0.413000000
C     1.345000000     0.401000000     0.491000000
H     1.156000000     1.353000000     0.982000000
C     2.633000000    -0.152000000     0.633000000
H     3.404000000     0.477000000     1.072000000
C     2.900000000    -1.429000000     0.307000000
C     4.341000000    -1.965000000     0.346000000
O     5.283000000    -1.218000000     0.490000000
O     4.580000000    -3.149000000     0.123000000
