17
-89.65712
C     1.932000000    -3.026000000     0.567000000
H     2.282000000    -3.983000000     0.189000000
C     0.897000000    -2.336000000    -0.088000000
H     0.364000000    -2.771000000    -0.930000000
C     0.500000000    -1.103000000     0.381000000
C    -0.531000000    -0.229000000    -0.325000000
H    -0.832000000    -0.660000000    -1.282000000
H    -1.393000000    -0.211000000     0.346000000
H    -0.134000000     0.781000000    -0.449000000
C     1.165000000    -0.488000000     1.416000000
H     0.818000000     0.515000000     1.648000000
C     2.278000000    -1.084000000     1.969000000
H     2.779000000    -0.572000000     2.787000000
C     2.589000000    -2.456000000     1.637000000
C     3.760000000    -3.193000000     2.207000000
O     4.724000000    -2.626000000     2.670000000
O     3.718000000    -4.366000000     2.188000000
