17
-93.96662
C     1.100000000    -2.655000000     0.403000000
H     1.023000000    -3.717000000     0.187000000
C     0.147000000    -1.760000000    -0.092000000
H    -0.694000000    -2.205000000    -0.618000000
C     0.248000000    -0.415000000     0.057000000
C    -0.850000000     0.482000000    -0.515000000
H    -1.664000000    -0.137000000    -0.897000000
H    -1.303000000     1.079000000     0.280000000
H    -0.548000000     1.282000000    -1.195000000
C     1.411000000     0.151000000     0.706000000
H     1.582000000     1.219000000     0.810000000
C     2.333000000    -0.759000000     1.235000000
H     3.189000000    -0.373000000     1.782000000
C     2.150000000    -2.136000000     1.194000000
C     3.132000000    -3.051000000     1.874000000
O     4.219000000    -2.669000000     2.298000000
O     2.941000000    -4.265000000     2.048000000
