17
-86.25702
C     2.580000000    -2.307000000    -0.041000000
H     2.786000000    -3.300000000    -0.433000000
C     1.315000000    -1.862000000     0.038000000
H     0.567000000    -2.604000000    -0.228000000
C     0.945000000    -0.571000000     0.337000000
C    -0.450000000    -0.127000000     0.223000000
H    -1.057000000    -0.161000000     1.130000000
H    -0.516000000     0.872000000    -0.214000000
H    -0.956000000    -0.751000000    -0.516000000
C     1.978000000     0.266000000     0.630000000
H     1.627000000     1.249000000     0.933000000
C     3.298000000    -0.026000000     0.620000000
H     3.996000000     0.746000000     0.936000000
C     3.683000000    -1.377000000     0.207000000
C     5.061000000    -1.859000000     0.190000000
O     5.981000000    -1.053000000     0.299000000
O     5.331000000    -3.043000000     0.083000000
