17
-96.57489
C     1.410000000    -1.853000000     0.956000000
H     1.324000000    -2.583000000     1.757000000
C     0.329000000    -1.062000000     0.774000000
H    -0.485000000    -1.135000000     1.490000000
C     0.274000000    -0.178000000    -0.292000000
C    -0.921000000     0.713000000    -0.428000000
H    -1.828000000     0.331000000     0.045000000
H    -0.674000000     1.674000000     0.027000000
H    -1.008000000     1.010000000    -1.475000000
C     1.335000000    -0.066000000    -1.157000000
H     1.250000000     0.609000000    -2.005000000
C     2.560000000    -0.749000000    -0.894000000
H     3.412000000    -0.781000000    -1.569000000
C     2.578000000    -1.700000000     0.182000000
C     3.709000000    -2.630000000     0.551000000
O     4.827000000    -2.348000000     0.028000000
O     3.599000000    -3.438000000     1.457000000
