17
-97.47558
C     1.821000000    -1.888000000     1.916000000
H     1.811000000    -2.804000000     2.502000000
C     0.656000000    -1.305000000     1.396000000
H    -0.305000000    -1.757000000     1.630000000
C     0.768000000    -0.164000000     0.636000000
C    -0.484000000     0.459000000     0.035000000
H    -1.097000000     0.864000000     0.842000000
H    -0.322000000     1.167000000    -0.781000000
H    -0.993000000    -0.359000000    -0.480000000
C     1.962000000     0.440000000     0.434000000
H     2.049000000     1.358000000    -0.142000000
C     3.117000000    -0.152000000     0.958000000
H     4.102000000     0.288000000     0.822000000
C     3.081000000    -1.408000000     1.564000000
C     4.361000000    -2.119000000     1.888000000
O     5.435000000    -1.547000000     1.664000000
O     4.376000000    -3.191000000     2.436000000
