17
-97.10607
C     0.884000000    -2.117000000     1.264000000
H     0.865000000    -2.877000000     2.041000000
C    -0.157000000    -1.171000000     1.097000000
H    -0.980000000    -1.223000000     1.805000000
C    -0.075000000    -0.124000000     0.172000000
C    -1.087000000     0.976000000     0.075000000
H    -2.091000000     0.683000000     0.389000000
H    -0.862000000     1.846000000     0.696000000
H    -1.116000000     1.365000000    -0.945000000
C     1.063000000    -0.098000000    -0.683000000
H     1.200000000     0.670000000    -1.439000000
C     2.100000000    -1.069000000    -0.592000000
H     2.882000000    -0.866000000    -1.319000000
C     1.992000000    -2.066000000     0.405000000
C     3.023000000    -3.162000000     0.358000000
O     4.052000000    -3.026000000    -0.292000000
O     2.827000000    -4.229000000     0.903000000
