17
-96.82486
C     1.657000000    -1.248000000     1.884000000
H     1.723000000    -1.798000000     2.819000000
C     0.381000000    -0.811000000     1.454000000
H    -0.530000000    -0.974000000     2.024000000
C     0.222000000    -0.062000000     0.313000000
C    -1.088000000     0.600000000    -0.003000000
H    -1.419000000     1.373000000     0.693000000
H    -1.134000000     1.020000000    -1.010000000
H    -1.840000000    -0.191000000     0.045000000
C     1.335000000     0.102000000    -0.534000000
H     1.285000000     0.624000000    -1.486000000
C     2.590000000    -0.354000000    -0.100000000
H     3.455000000    -0.204000000    -0.741000000
C     2.766000000    -1.068000000     1.078000000
C     4.128000000    -1.567000000     1.507000000
O     5.109000000    -1.274000000     0.895000000
O     4.205000000    -2.416000000     2.377000000
