17
-90.79256
C     1.607000000    -0.706000000     1.853000000
H     1.705000000    -0.877000000     2.922000000
C     0.315000000    -0.471000000     1.330000000
H    -0.513000000    -0.430000000     2.033000000
C     0.055000000    -0.090000000    -0.025000000
C    -1.268000000     0.553000000    -0.443000000
H    -2.106000000     0.120000000     0.107000000
H    -1.288000000     1.635000000    -0.293000000
H    -1.547000000     0.476000000    -1.496000000
C     1.221000000     0.060000000    -0.839000000
H     1.274000000     0.405000000    -1.869000000
C     2.425000000    -0.288000000    -0.353000000
H     3.336000000    -0.287000000    -0.946000000
C     2.678000000    -0.632000000     0.967000000
C     4.011000000    -1.083000000     1.443000000
O     4.949000000    -1.025000000     0.682000000
O     4.160000000    -1.412000000     2.600000000
