17
-99.70393
C     1.818000000    -1.512000000     1.344000000
H     2.090000000    -2.316000000     2.023000000
C     0.488000000    -1.145000000     1.086000000
H    -0.349000000    -1.611000000     1.598000000
C     0.222000000    -0.036000000     0.256000000
C    -1.203000000     0.406000000    -0.024000000
H    -1.301000000     1.121000000    -0.843000000
H    -1.815000000    -0.446000000    -0.327000000
H    -1.653000000     0.864000000     0.860000000
C     1.299000000     0.535000000    -0.397000000
H     1.113000000     1.389000000    -1.042000000
C     2.618000000    -0.008000000    -0.310000000
H     3.439000000     0.391000000    -0.900000000
C     2.888000000    -1.011000000     0.572000000
C     4.284000000    -1.610000000     0.649000000
O     5.130000000    -1.278000000    -0.128000000
O     4.445000000    -2.608000000     1.384000000
