17
-98.06655
C    -0.044000000    -2.456000000     0.105000000
H     0.382000000    -3.371000000     0.509000000
C     0.258000000    -1.231000000     0.582000000
H     0.901000000    -1.112000000     1.451000000
C    -0.248000000    -0.099000000    -0.068000000
C    -0.042000000     1.241000000     0.615000000
H    -0.924000000     1.477000000     1.214000000
H     0.883000000     1.235000000     1.194000000
H     0.113000000     2.099000000    -0.043000000
C    -1.088000000    -0.202000000    -1.217000000
H    -1.333000000     0.701000000    -1.772000000
C    -1.483000000    -1.542000000    -1.595000000
H    -2.072000000    -1.692000000    -2.496000000
C    -0.898000000    -2.685000000    -0.967000000
C    -1.149000000    -4.047000000    -1.450000000
O    -2.106000000    -4.224000000    -2.221000000
O    -0.328000000    -4.943000000    -1.176000000
