17
-92.70466
C     2.079000000    -0.377000000     1.661000000
H     2.450000000    -0.546000000     2.668000000
C     0.696000000    -0.173000000     1.400000000
H    -0.036000000    -0.208000000     2.203000000
C     0.310000000     0.163000000     0.078000000
C    -1.118000000     0.435000000    -0.125000000
H    -1.342000000     0.064000000    -1.127000000
H    -1.859000000    -0.184000000     0.386000000
H    -1.276000000     1.513000000    -0.207000000
C     1.282000000     0.144000000    -0.909000000
H     1.000000000     0.317000000    -1.945000000
C     2.649000000    -0.075000000    -0.638000000
H     3.404000000     0.037000000    -1.412000000
C     3.037000000    -0.335000000     0.682000000
C     4.489000000    -0.617000000     0.978000000
O     5.240000000    -0.800000000     0.087000000
O     4.899000000    -0.664000000     2.144000000
