17
-91.76132
C     2.406000000    -1.347000000     0.078000000
H     3.295000000    -1.731000000    -0.414000000
C     1.444000000    -0.661000000    -0.577000000
H     1.485000000    -0.465000000    -1.646000000
C     0.268000000    -0.207000000     0.105000000
C    -0.774000000     0.534000000    -0.551000000
H    -1.081000000     0.083000000    -1.497000000
H    -1.690000000     0.515000000     0.043000000
H    -0.335000000     1.520000000    -0.716000000
C     0.121000000    -0.405000000     1.515000000
H    -0.700000000     0.017000000     2.088000000
C     1.176000000    -1.088000000     2.158000000
H     1.058000000    -1.389000000     3.196000000
C     2.290000000    -1.611000000     1.444000000
C     3.388000000    -2.380000000     2.188000000
O     3.335000000    -2.295000000     3.405000000
O     4.333000000    -3.033000000     1.745000000
