17
-98.52882
C     1.723000000    -1.859000000     1.593000000
H     1.981000000    -2.007000000     2.639000000
C     0.773000000    -0.933000000     1.224000000
H     0.191000000    -0.442000000     2.000000000
C     0.428000000    -0.757000000    -0.112000000
C    -0.533000000     0.320000000    -0.406000000
H    -1.535000000    -0.064000000    -0.203000000
H    -0.383000000     1.187000000     0.241000000
H    -0.483000000     0.672000000    -1.439000000
C     1.133000000    -1.394000000    -1.101000000
H     0.954000000    -1.172000000    -2.151000000
C     2.072000000    -2.337000000    -0.744000000
H     2.723000000    -2.764000000    -1.503000000
C     2.369000000    -2.580000000     0.570000000
C     3.538000000    -3.469000000     0.916000000
O     4.158000000    -3.933000000     0.011000000
O     3.893000000    -3.484000000     2.095000000
