17
-95.84907
C     1.518000000    -2.125000000     0.516000000
H     1.802000000    -2.767000000     1.345000000
C     0.460000000    -1.271000000     0.714000000
H    -0.004000000    -1.319000000     1.696000000
C     0.112000000    -0.360000000    -0.205000000
C    -0.975000000     0.601000000     0.086000000
H    -1.386000000     0.895000000    -0.882000000
H    -1.758000000     0.139000000     0.692000000
H    -0.583000000     1.471000000     0.617000000
C     0.871000000    -0.349000000    -1.431000000
H     0.666000000     0.355000000    -2.234000000
C     1.860000000    -1.328000000    -1.665000000
H     2.402000000    -1.338000000    -2.607000000
C     2.230000000    -2.225000000    -0.678000000
C     3.369000000    -3.207000000    -0.830000000
O     4.160000000    -3.236000000    -1.779000000
O     3.430000000    -4.108000000    -0.014000000
