17
-81.69254
C     1.760000000    -2.519000000     0.429000000
H     2.143000000    -3.169000000     1.211000000
C     0.761000000    -1.541000000     0.667000000
H     0.372000000    -1.468000000     1.679000000
C     0.281000000    -0.715000000    -0.369000000
C    -0.942000000     0.246000000    -0.171000000
H    -0.923000000     1.178000000    -0.739000000
H    -1.863000000    -0.322000000    -0.322000000
H    -1.042000000     0.620000000     0.850000000
C     0.928000000    -0.613000000    -1.604000000
H     0.614000000     0.132000000    -2.332000000
C     1.985000000    -1.521000000    -1.842000000
H     2.678000000    -1.501000000    -2.680000000
C     2.333000000    -2.466000000    -0.856000000
C     3.368000000    -3.447000000    -1.121000000
O     3.853000000    -3.601000000    -2.158000000
O     3.695000000    -4.219000000    -0.228000000
