17
-97.03359
C     3.932000000    -2.477000000    -0.851000000
H     4.166000000    -3.448000000    -0.420000000
C     3.074000000    -1.621000000    -0.168000000
H     2.592000000    -1.940000000     0.753000000
C     2.758000000    -0.371000000    -0.671000000
C     1.717000000     0.478000000     0.048000000
H     2.083000000     1.277000000     0.697000000
H     1.105000000     1.090000000    -0.618000000
H     1.101000000    -0.200000000     0.643000000
C     3.483000000     0.071000000    -1.757000000
H     3.224000000     1.073000000    -2.092000000
C     4.323000000    -0.720000000    -2.521000000
H     4.796000000    -0.329000000    -3.418000000
C     4.546000000    -1.999000000    -1.998000000
C     5.561000000    -2.929000000    -2.714000000
O     6.038000000    -2.496000000    -3.759000000
O     5.745000000    -4.071000000    -2.376000000
