17
-97.06445
C     2.361000000    -1.047000000     0.350000000
H     2.977000000    -1.544000000     1.095000000
C     1.047000000    -0.858000000     0.725000000
H     0.681000000    -1.197000000     1.691000000
C     0.210000000    -0.222000000    -0.178000000
C    -1.236000000    -0.112000000     0.117000000
H    -1.518000000     0.902000000    -0.172000000
H    -1.812000000    -0.789000000    -0.518000000
H    -1.434000000    -0.073000000     1.191000000
C     0.592000000     0.161000000    -1.453000000
H    -0.133000000     0.522000000    -2.178000000
C     1.960000000     0.044000000    -1.752000000
H     2.315000000     0.424000000    -2.707000000
C     2.807000000    -0.590000000    -0.865000000
C     4.245000000    -0.834000000    -1.291000000
O     4.694000000    -0.247000000    -2.254000000
O     5.027000000    -1.468000000    -0.531000000
