17
-97.68098
C     1.574000000    -1.943000000     0.074000000
H     2.077000000    -2.649000000     0.731000000
C     0.466000000    -1.168000000     0.429000000
H    -0.139000000    -1.236000000     1.330000000
C     0.021000000    -0.138000000    -0.439000000
C    -1.104000000     0.825000000    -0.005000000
H    -1.044000000     1.799000000    -0.495000000
H    -2.101000000     0.411000000    -0.164000000
H    -1.072000000     1.004000000     1.072000000
C     0.572000000     0.065000000    -1.667000000
H     0.321000000     0.974000000    -2.207000000
C     1.614000000    -0.762000000    -2.044000000
H     2.174000000    -0.557000000    -2.953000000
C     2.177000000    -1.704000000    -1.178000000
C     3.438000000    -2.446000000    -1.530000000
O     4.103000000    -2.114000000    -2.516000000
O     3.861000000    -3.412000000    -0.864000000
