17
-96.57796
C     1.376000000    -1.675000000     0.546000000
H     1.957000000    -2.245000000     1.267000000
C     0.317000000    -0.888000000     1.029000000
H     0.036000000    -0.878000000     2.079000000
C    -0.362000000    -0.072000000     0.111000000
C    -1.474000000     0.853000000     0.572000000
H    -2.384000000     0.780000000    -0.026000000
H    -1.774000000     0.604000000     1.591000000
H    -1.179000000     1.904000000     0.539000000
C     0.038000000    -0.084000000    -1.205000000
H    -0.468000000     0.544000000    -1.934000000
C     0.893000000    -1.045000000    -1.699000000
H     0.986000000    -1.076000000    -2.782000000
C     1.594000000    -1.871000000    -0.847000000
C     2.685000000    -2.766000000    -1.378000000
O     2.822000000    -2.939000000    -2.568000000
O     3.483000000    -3.193000000    -0.594000000
