17
-86.10800
C     2.636000000    -1.276000000     0.510000000
H     3.351000000    -1.533000000     1.287000000
C     1.316000000    -0.973000000     0.843000000
H     0.920000000    -1.043000000     1.853000000
C     0.418000000    -0.615000000    -0.146000000
C    -0.965000000    -0.196000000     0.091000000
H    -1.389000000    -1.202000000     0.118000000
H    -1.249000000     0.214000000     1.062000000
H    -1.280000000     0.489000000    -0.699000000
C     0.892000000    -0.547000000    -1.471000000
H     0.166000000    -0.292000000    -2.238000000
C     2.192000000    -0.878000000    -1.811000000
H     2.471000000    -0.830000000    -2.861000000
C     3.095000000    -1.258000000    -0.805000000
C     4.467000000    -1.740000000    -1.063000000
O     4.811000000    -1.833000000    -2.218000000
O     5.220000000    -2.037000000    -0.221000000
