17
-92.17819
C     3.225000000     0.118000000     0.533000000
H     4.024000000    -0.218000000     1.189000000
C     1.922000000    -0.133000000     0.867000000
H     1.680000000    -0.689000000     1.770000000
C     0.941000000     0.312000000     0.008000000
C    -0.508000000    -0.070000000     0.392000000
H    -1.026000000    -0.316000000    -0.538000000
H    -0.611000000    -0.816000000     1.182000000
H    -0.984000000     0.847000000     0.746000000
C     1.250000000     1.070000000    -1.168000000
H     0.421000000     1.394000000    -1.792000000
C     2.623000000     1.333000000    -1.467000000
H     2.860000000     2.005000000    -2.288000000
C     3.606000000     0.823000000    -0.658000000
C     5.096000000     1.091000000    -0.933000000
O     5.453000000     1.738000000    -1.861000000
O     5.953000000     0.711000000    -0.161000000
