17
-97.82427
C     2.446000000    -0.471000000    -0.108000000
H     3.266000000    -0.941000000     0.428000000
C     1.122000000    -0.628000000     0.418000000
H     0.896000000    -1.158000000     1.340000000
C     0.112000000    -0.054000000    -0.255000000
C    -1.287000000    -0.091000000     0.345000000
H    -1.996000000     0.286000000    -0.395000000
H    -1.558000000    -1.111000000     0.623000000
H    -1.422000000     0.430000000     1.295000000
C     0.252000000     0.449000000    -1.509000000
H    -0.540000000     0.801000000    -2.164000000
C     1.501000000     0.512000000    -2.101000000
H     1.647000000     0.850000000    -3.123000000
C     2.595000000     0.064000000    -1.382000000
C     4.032000000     0.295000000    -1.911000000
O     4.126000000     0.765000000    -3.046000000
O     4.988000000     0.161000000    -1.157000000
