17
-99.77440
C     2.358000000    -0.765000000    -0.795000000
H     3.155000000    -1.473000000    -0.586000000
C     1.119000000    -0.871000000    -0.129000000
H     0.935000000    -1.612000000     0.645000000
C     0.081000000     0.011000000    -0.484000000
C    -1.273000000    -0.037000000     0.193000000
H    -1.490000000    -1.099000000     0.324000000
H    -1.201000000     0.383000000     1.199000000
H    -2.065000000     0.512000000    -0.320000000
C     0.316000000     0.956000000    -1.501000000
H    -0.508000000     1.583000000    -1.832000000
C     1.540000000     1.093000000    -2.062000000
H     1.750000000     1.877000000    -2.786000000
C     2.567000000     0.181000000    -1.779000000
C     3.884000000     0.368000000    -2.477000000
O     3.861000000     1.165000000    -3.407000000
O     4.905000000     0.032000000    -1.909000000
