17
-85.55299
C     2.468000000    -0.926000000    -0.549000000
H     3.233000000    -1.674000000    -0.361000000
C     1.147000000    -0.909000000     0.007000000
H     0.895000000    -1.625000000     0.786000000
C     0.210000000     0.117000000    -0.270000000
C    -1.246000000     0.141000000     0.228000000
H    -1.213000000     0.528000000     1.248000000
H    -1.854000000     0.864000000    -0.319000000
H    -1.717000000    -0.827000000     0.040000000
C     0.612000000     1.077000000    -1.169000000
H    -0.089000000     1.804000000    -1.571000000
C     1.859000000     1.094000000    -1.754000000
H     2.051000000     1.807000000    -2.551000000
C     2.823000000     0.184000000    -1.340000000
C     4.140000000     0.231000000    -2.079000000
O     4.493000000     1.318000000    -2.488000000
O     4.916000000    -0.653000000    -2.209000000
