17
-92.09773
C    -0.474000000    -2.601000000     0.759000000
H     0.045000000    -3.427000000     1.238000000
C     0.170000000    -1.347000000     0.774000000
H     1.095000000    -1.275000000     1.340000000
C    -0.405000000    -0.237000000     0.179000000
C     0.309000000     1.067000000     0.179000000
H     1.294000000     1.013000000    -0.289000000
H    -0.303000000     1.828000000    -0.309000000
H     0.403000000     1.401000000     1.215000000
C    -1.639000000    -0.356000000    -0.454000000
H    -2.074000000     0.447000000    -1.044000000
C    -2.301000000    -1.593000000    -0.455000000
H    -3.286000000    -1.648000000    -0.912000000
C    -1.683000000    -2.722000000     0.051000000
C    -2.375000000    -4.059000000    -0.113000000
O    -3.394000000    -4.096000000    -0.802000000
O    -1.710000000    -5.063000000    -0.075000000
