17
-80.67881
C     2.900000000     0.007000000    -1.684000000
H     3.849000000    -0.490000000    -1.871000000
C     2.011000000    -0.490000000    -0.756000000
H     2.237000000    -1.326000000    -0.100000000
C     0.826000000     0.257000000    -0.558000000
C    -0.213000000    -0.152000000     0.511000000
H    -0.722000000    -1.091000000     0.281000000
H     0.309000000    -0.288000000     1.460000000
H    -0.933000000     0.659000000     0.633000000
C     0.492000000     1.374000000    -1.274000000
H    -0.436000000     1.916000000    -1.114000000
C     1.385000000     1.885000000    -2.204000000
H     1.153000000     2.858000000    -2.630000000
C     2.574000000     1.172000000    -2.443000000
C     3.599000000     1.645000000    -3.378000000
O     3.665000000     2.728000000    -3.824000000
O     4.454000000     0.906000000    -3.706000000
