17
-96.80841
C     2.400000000    -0.119000000    -0.868000000
H     3.235000000    -0.813000000    -0.821000000
C     1.157000000    -0.498000000    -0.292000000
H     1.246000000    -1.427000000     0.264000000
C     0.028000000     0.263000000    -0.473000000
C    -1.297000000    -0.164000000     0.194000000
H    -1.734000000     0.542000000     0.902000000
H    -2.010000000    -0.214000000    -0.632000000
H    -1.364000000    -1.148000000     0.663000000
C     0.112000000     1.399000000    -1.255000000
H    -0.760000000     2.028000000    -1.412000000
C     1.299000000     1.875000000    -1.776000000
H     1.333000000     2.826000000    -2.302000000
C     2.464000000     1.042000000    -1.632000000
C     3.787000000     1.577000000    -2.172000000
O     3.988000000     2.775000000    -2.268000000
O     4.734000000     0.803000000    -2.398000000
