17
-88.44314
C     1.126000000    -0.283000000    -2.316000000
H     1.136000000    -0.891000000    -3.217000000
C     0.283000000    -0.691000000    -1.325000000
H    -0.420000000    -1.505000000    -1.483000000
C     0.204000000     0.098000000    -0.212000000
C    -0.720000000    -0.450000000     0.798000000
H    -0.923000000     0.373000000     1.487000000
H    -1.684000000    -0.630000000     0.318000000
H    -0.217000000    -1.232000000     1.370000000
C     1.150000000     1.095000000    -0.005000000
H     1.104000000     1.725000000     0.880000000
C     2.059000000     1.432000000    -0.999000000
H     2.853000000     2.147000000    -0.797000000
C     1.962000000     0.771000000    -2.217000000
C     2.826000000     1.182000000    -3.422000000
O     3.541000000     2.134000000    -3.266000000
O     2.951000000     0.420000000    -4.344000000
