17
-89.55746
C     1.281000000     0.776000000    -2.345000000
H     1.453000000     0.474000000    -3.375000000
C     0.349000000     0.004000000    -1.629000000
H    -0.155000000    -0.808000000    -2.148000000
C     0.066000000     0.273000000    -0.276000000
C    -1.095000000    -0.446000000     0.386000000
H    -0.905000000    -1.521000000     0.360000000
H    -1.152000000    -0.049000000     1.402000000
H    -2.048000000    -0.166000000    -0.067000000
C     0.678000000     1.353000000     0.351000000
H     0.382000000     1.624000000     1.361000000
C     1.485000000     2.207000000    -0.382000000
H     1.838000000     3.140000000     0.049000000
C     1.926000000     1.892000000    -1.722000000
C     2.926000000     2.627000000    -2.453000000
O     3.601000000     3.470000000    -1.905000000
O     3.266000000     2.277000000    -3.556000000
