17
-98.43003
C     1.273000000     1.000000000    -2.137000000
H     1.484000000     0.853000000    -3.193000000
C     0.478000000     0.022000000    -1.520000000
H     0.037000000    -0.726000000    -2.174000000
C     0.269000000     0.134000000    -0.130000000
C    -0.683000000    -0.737000000     0.650000000
H    -1.019000000    -0.193000000     1.536000000
H    -1.466000000    -1.138000000     0.004000000
H    -0.102000000    -1.555000000     1.081000000
C     0.849000000     1.159000000     0.562000000
H     0.685000000     1.148000000     1.636000000
C     1.638000000     2.131000000    -0.025000000
H     1.988000000     2.961000000     0.583000000
C     1.814000000     2.067000000    -1.414000000
C     2.788000000     2.943000000    -2.117000000
O     3.544000000     3.602000000    -1.434000000
O     2.758000000     3.043000000    -3.352000000
