17
-95.62412
C     0.593000000     1.096000000    -2.076000000
H     0.735000000     1.217000000    -3.147000000
C    -0.249000000     0.192000000    -1.475000000
H    -0.828000000    -0.461000000    -2.123000000
C    -0.457000000     0.172000000    -0.068000000
C    -1.183000000    -0.909000000     0.614000000
H    -2.265000000    -0.803000000     0.509000000
H    -0.920000000    -1.904000000     0.250000000
H    -1.034000000    -0.919000000     1.696000000
C     0.291000000     1.022000000     0.697000000
H     0.204000000     0.943000000     1.778000000
C     1.109000000     2.009000000     0.090000000
H     1.586000000     2.694000000     0.786000000
C     1.256000000     2.061000000    -1.279000000
C     2.078000000     3.162000000    -1.843000000
O     2.276000000     4.188000000    -1.229000000
O     2.677000000     2.944000000    -2.866000000
