17
-85.96789
C     0.743000000     0.295000000    -2.509000000
H     0.607000000    -0.121000000    -3.504000000
C    -0.043000000    -0.269000000    -1.527000000
H    -0.746000000    -1.090000000    -1.641000000
C     0.155000000     0.197000000    -0.177000000
C    -0.639000000    -0.423000000     0.908000000
H    -0.097000000    -1.248000000     1.374000000
H    -1.001000000     0.286000000     1.655000000
H    -1.523000000    -0.849000000     0.428000000
C     1.025000000     1.225000000     0.134000000
H     1.091000000     1.679000000     1.120000000
C     1.681000000     1.903000000    -0.851000000
H     2.315000000     2.734000000    -0.553000000
C     1.618000000     1.322000000    -2.169000000
C     2.488000000     1.902000000    -3.317000000
O     3.359000000     2.731000000    -3.097000000
O     2.499000000     1.453000000    -4.419000000
