17
-92.14296
C     0.416000000     2.351000000    -1.897000000
H     0.156000000     3.357000000    -2.215000000
C    -0.388000000     1.724000000    -0.940000000
H    -1.237000000     2.255000000    -0.517000000
C    -0.054000000     0.365000000    -0.546000000
C    -0.920000000    -0.341000000     0.419000000
H    -0.704000000     0.069000000     1.407000000
H    -1.962000000    -0.050000000     0.274000000
H    -0.808000000    -1.402000000     0.654000000
C     1.130000000    -0.181000000    -1.059000000
H     1.402000000    -1.201000000    -0.800000000
C     1.934000000     0.495000000    -1.930000000
H     2.874000000     0.054000000    -2.254000000
C     1.592000000     1.774000000    -2.420000000
C     2.561000000     2.562000000    -3.316000000
O     3.448000000     2.035000000    -3.962000000
O     2.633000000     3.793000000    -3.280000000
