17
-93.61001
C     0.707000000     1.536000000    -1.595000000
H     0.430000000     2.454000000    -2.106000000
C    -0.203000000     0.986000000    -0.664000000
H    -1.217000000     1.364000000    -0.557000000
C     0.118000000    -0.206000000     0.006000000
C    -0.938000000    -0.828000000     0.894000000
H    -1.065000000    -0.350000000     1.868000000
H    -1.906000000    -0.752000000     0.394000000
H    -0.681000000    -1.889000000     0.928000000
C     1.323000000    -0.822000000    -0.153000000
H     1.541000000    -1.754000000     0.362000000
C     2.289000000    -0.267000000    -1.016000000
H     3.222000000    -0.814000000    -1.127000000
C     1.959000000     0.892000000    -1.821000000
C     3.058000000     1.521000000    -2.630000000
O     4.161000000     1.093000000    -2.550000000
O     2.839000000     2.490000000    -3.349000000
