17
-91.26646
C     0.142000000    -2.957000000     1.371000000
H     0.840000000    -3.528000000     1.978000000
C     0.336000000    -1.574000000     1.173000000
H     1.124000000    -1.082000000     1.737000000
C    -0.452000000    -0.790000000     0.387000000
C    -0.201000000     0.711000000     0.285000000
H    -0.963000000     1.157000000    -0.356000000
H    -0.347000000     1.262000000     1.217000000
H     0.821000000     0.941000000    -0.024000000
C    -1.418000000    -1.372000000    -0.447000000
H    -2.069000000    -0.917000000    -1.190000000
C    -1.656000000    -2.722000000    -0.240000000
H    -2.313000000    -3.236000000    -0.937000000
C    -0.904000000    -3.581000000     0.672000000
C    -1.093000000    -5.051000000     0.881000000
O    -2.127000000    -5.629000000     0.491000000
O    -0.318000000    -5.756000000     1.491000000
