17
-95.92478
C     1.020000000     2.138000000    -1.484000000
H     0.789000000     2.965000000    -2.150000000
C     0.012000000     1.377000000    -0.839000000
H    -1.004000000     1.762000000    -0.876000000
C     0.373000000     0.184000000    -0.231000000
C    -0.700000000    -0.694000000     0.419000000
H    -0.421000000    -1.730000000     0.624000000
H    -0.901000000    -0.372000000     1.443000000
H    -1.681000000    -0.680000000    -0.060000000
C     1.714000000    -0.208000000    -0.288000000
H     2.096000000    -1.115000000     0.173000000
C     2.663000000     0.535000000    -0.956000000
H     3.684000000     0.162000000    -0.939000000
C     2.358000000     1.697000000    -1.627000000
C     3.329000000     2.618000000    -2.277000000
O     4.450000000     2.180000000    -2.518000000
O     3.024000000     3.749000000    -2.734000000
