17
-93.00768
C     0.456000000     2.222000000    -1.139000000
H     0.169000000     3.247000000    -1.359000000
C    -0.368000000     1.466000000    -0.353000000
H    -1.290000000     1.901000000     0.026000000
C     0.037000000     0.147000000    -0.116000000
C    -0.961000000    -0.830000000     0.451000000
H    -1.760000000    -0.440000000     1.086000000
H    -1.590000000    -1.324000000    -0.293000000
H    -0.416000000    -1.586000000     1.020000000
C     1.248000000    -0.383000000    -0.671000000
H     1.559000000    -1.406000000    -0.470000000
C     2.050000000     0.439000000    -1.497000000
H     3.058000000     0.134000000    -1.766000000
C     1.648000000     1.773000000    -1.697000000
C     2.622000000     2.715000000    -2.435000000
O     3.646000000     2.291000000    -2.987000000
O     2.267000000     3.830000000    -2.738000000
