17
-88.32010
C     1.258000000     1.637000000    -2.287000000
H     1.091000000     2.610000000    -2.743000000
C     0.195000000     1.053000000    -1.658000000
H    -0.784000000     1.498000000    -1.496000000
C     0.389000000    -0.024000000    -0.829000000
C    -0.833000000    -0.473000000     0.071000000
H    -1.273000000    -1.401000000    -0.301000000
H    -0.540000000    -0.644000000     1.109000000
H    -1.608000000     0.289000000     0.175000000
C     1.605000000    -0.721000000    -0.733000000
H     1.717000000    -1.529000000    -0.014000000
C     2.640000000    -0.160000000    -1.474000000
H     3.582000000    -0.683000000    -1.329000000
C     2.496000000     0.985000000    -2.199000000
C     3.704000000     1.560000000    -2.897000000
O     4.815000000     1.084000000    -2.782000000
O     3.611000000     2.464000000    -3.736000000
