17
-88.98614
C     1.323000000     1.849000000    -1.777000000
H     1.124000000     2.720000000    -2.396000000
C     0.178000000     1.290000000    -1.142000000
H    -0.665000000     1.973000000    -1.201000000
C     0.231000000     0.095000000    -0.438000000
C    -0.960000000    -0.438000000     0.282000000
H    -1.579000000    -1.195000000    -0.203000000
H    -0.573000000    -0.883000000     1.201000000
H    -1.633000000     0.338000000     0.654000000
C     1.461000000    -0.489000000    -0.356000000
H     1.506000000    -1.344000000     0.315000000
C     2.627000000     0.021000000    -0.906000000
H     3.546000000    -0.554000000    -0.826000000
C     2.571000000     1.254000000    -1.638000000
C     3.732000000     1.710000000    -2.428000000
O     4.771000000     1.188000000    -2.188000000
O     3.638000000     2.616000000    -3.208000000
