17
-97.48354
C     1.963000000     1.294000000    -2.187000000
H     2.030000000     2.164000000    -2.835000000
C     0.869000000     1.090000000    -1.414000000
H     0.077000000     1.827000000    -1.517000000
C     0.700000000    -0.006000000    -0.639000000
C    -0.591000000    -0.202000000     0.130000000
H    -1.226000000     0.681000000     0.027000000
H    -1.227000000    -1.010000000    -0.236000000
H    -0.362000000    -0.294000000     1.194000000
C     1.885000000    -0.713000000    -0.328000000
H     1.856000000    -1.505000000     0.415000000
C     3.058000000    -0.494000000    -1.022000000
H     3.916000000    -1.134000000    -0.832000000
C     3.087000000     0.511000000    -2.009000000
C     4.396000000     0.847000000    -2.750000000
O     5.399000000     0.184000000    -2.569000000
O     4.383000000     1.817000000    -3.520000000
