17
-92.43299
C     0.593000000     1.958000000    -2.170000000
H     0.371000000     2.839000000    -2.767000000
C    -0.196000000     1.383000000    -1.169000000
H    -1.176000000     1.773000000    -0.908000000
C     0.208000000     0.159000000    -0.607000000
C    -0.666000000    -0.527000000     0.423000000
H    -1.732000000    -0.290000000     0.419000000
H    -0.576000000    -1.615000000     0.422000000
H    -0.388000000    -0.349000000     1.464000000
C     1.407000000    -0.426000000    -0.927000000
H     1.736000000    -1.305000000    -0.378000000
C     2.127000000     0.074000000    -2.024000000
H     3.063000000    -0.376000000    -2.344000000
C     1.805000000     1.277000000    -2.613000000
C     2.748000000     1.913000000    -3.594000000
O     3.840000000     1.484000000    -3.768000000
O     2.467000000     3.043000000    -3.985000000
