17
-93.77330
C     0.288000000     1.837000000    -1.475000000
H    -0.086000000     2.747000000    -1.937000000
C    -0.460000000     1.282000000    -0.480000000
H    -1.394000000     1.699000000    -0.113000000
C    -0.032000000     0.126000000     0.138000000
C    -0.946000000    -0.585000000     1.096000000
H    -0.780000000    -1.662000000     1.040000000
H    -0.720000000    -0.280000000     2.120000000
H    -2.000000000    -0.370000000     0.907000000
C     1.081000000    -0.514000000    -0.333000000
H     1.321000000    -1.448000000     0.169000000
C     1.847000000     0.008000000    -1.359000000
H     2.714000000    -0.538000000    -1.723000000
C     1.472000000     1.217000000    -1.915000000
C     2.223000000     1.838000000    -3.078000000
O     3.303000000     1.356000000    -3.329000000
O     1.914000000     2.832000000    -3.706000000
