17
-88.44046
C     0.842000000     1.735000000    -1.848000000
H     0.633000000     2.565000000    -2.518000000
C    -0.153000000     1.034000000    -1.122000000
H    -1.197000000     1.302000000    -1.263000000
C     0.163000000     0.023000000    -0.257000000
C    -0.938000000    -0.670000000     0.629000000
H    -0.654000000    -0.825000000     1.671000000
H    -1.821000000    -0.029000000     0.684000000
H    -1.259000000    -1.626000000     0.211000000
C     1.526000000    -0.177000000    -0.019000000
H     1.765000000    -0.992000000     0.660000000
C     2.521000000     0.397000000    -0.784000000
H     3.552000000     0.055000000    -0.733000000
C     2.195000000     1.327000000    -1.836000000
C     3.277000000     1.878000000    -2.723000000
O     4.430000000     1.548000000    -2.663000000
O     2.967000000     2.660000000    -3.576000000
