17
-92.96405
C    -0.089000000    -2.530000000     1.172000000
H     0.457000000    -3.094000000     1.924000000
C     0.221000000    -1.169000000     0.939000000
H     1.040000000    -0.651000000     1.432000000
C    -0.541000000    -0.466000000    -0.039000000
C    -0.240000000     0.933000000    -0.205000000
H    -0.568000000     1.535000000     0.645000000
H     0.843000000     1.061000000    -0.251000000
H    -0.622000000     1.216000000    -1.188000000
C    -1.344000000    -1.139000000    -0.884000000
H    -1.699000000    -0.627000000    -1.775000000
C    -1.813000000    -2.393000000    -0.524000000
H    -2.612000000    -2.875000000    -1.082000000
C    -1.137000000    -3.146000000     0.474000000
C    -1.476000000    -4.643000000     0.648000000
O    -2.341000000    -5.182000000    -0.026000000
O    -0.976000000    -5.274000000     1.599000000
