17
-92.05909
C     0.925000000     0.994000000    -2.602000000
H     0.586000000     1.738000000    -3.319000000
C    -0.005000000     0.489000000    -1.693000000
H    -1.046000000     0.791000000    -1.774000000
C     0.318000000    -0.405000000    -0.682000000
C    -0.698000000    -0.886000000     0.278000000
H    -0.175000000    -1.098000000     1.213000000
H    -1.530000000    -0.196000000     0.436000000
H    -1.037000000    -1.900000000     0.057000000
C     1.574000000    -0.911000000    -0.554000000
H     1.829000000    -1.512000000     0.315000000
C     2.499000000    -0.535000000    -1.505000000
H     3.554000000    -0.773000000    -1.398000000
C     2.207000000     0.455000000    -2.515000000
C     3.250000000     1.019000000    -3.353000000
O     4.333000000     0.505000000    -3.231000000
O     2.986000000     1.875000000    -4.179000000
