17
-101.94608
C     0.645000000     1.471000000    -1.991000000
H     0.391000000     2.231000000    -2.726000000
C    -0.212000000     1.034000000    -0.963000000
H    -1.224000000     1.429000000    -0.984000000
C     0.157000000    -0.031000000    -0.166000000
C    -0.759000000    -0.567000000     0.934000000
H    -0.872000000     0.234000000     1.668000000
H    -1.732000000    -0.876000000     0.546000000
H    -0.458000000    -1.450000000     1.502000000
C     1.448000000    -0.531000000    -0.281000000
H     1.786000000    -1.373000000     0.317000000
C     2.296000000    -0.128000000    -1.286000000
H     3.256000000    -0.628000000    -1.389000000
C     1.884000000     0.856000000    -2.195000000
C     2.848000000     1.299000000    -3.318000000
O     3.956000000     0.761000000    -3.482000000
O     2.478000000     2.213000000    -4.059000000
