17
-84.03419
C    -0.216000000     1.749000000    -1.894000000
H    -0.770000000     2.579000000    -2.324000000
C    -0.831000000     1.025000000    -0.864000000
H    -1.842000000     1.171000000    -0.491000000
C    -0.104000000     0.085000000    -0.115000000
C    -0.713000000    -0.893000000     0.913000000
H    -1.553000000    -0.402000000     1.407000000
H    -0.977000000    -1.791000000     0.350000000
H     0.076000000    -1.096000000     1.640000000
C     1.228000000    -0.119000000    -0.374000000
H     1.836000000    -0.773000000     0.245000000
C     1.840000000     0.584000000    -1.432000000
H     2.919000000     0.481000000    -1.512000000
C     1.194000000     1.561000000    -2.177000000
C     1.903000000     2.266000000    -3.264000000
O     2.930000000     1.839000000    -3.720000000
O     1.621000000     3.391000000    -3.462000000
