17
-89.90903
C     0.450000000     2.300000000    -2.048000000
H     0.254000000     3.283000000    -2.469000000
C    -0.332000000     1.753000000    -1.117000000
H    -1.226000000     2.265000000    -0.771000000
C    -0.001000000     0.509000000    -0.530000000
C    -0.876000000     0.025000000     0.625000000
H    -1.853000000     0.511000000     0.567000000
H    -0.806000000    -1.058000000     0.508000000
H    -0.392000000     0.432000000     1.515000000
C     1.138000000    -0.198000000    -1.037000000
H     1.348000000    -1.178000000    -0.614000000
C     1.859000000     0.327000000    -2.145000000
H     2.695000000    -0.240000000    -2.547000000
C     1.581000000     1.589000000    -2.558000000
C     2.440000000     2.206000000    -3.602000000
O     2.899000000     1.534000000    -4.505000000
O     2.582000000     3.389000000    -3.618000000
