17
-73.89752
C     0.347000000     1.411000000    -2.047000000
H     0.124000000     2.298000000    -2.634000000
C    -0.405000000     0.955000000    -1.037000000
H    -1.391000000     1.377000000    -0.859000000
C     0.029000000     0.144000000    -0.033000000
C    -0.979000000    -0.461000000     0.937000000
H    -1.364000000    -1.379000000     0.489000000
H    -0.470000000    -0.761000000     1.855000000
H    -1.822000000     0.191000000     1.175000000
C     1.271000000    -0.462000000    -0.263000000
H     1.625000000    -1.270000000     0.373000000
C     2.088000000    -0.055000000    -1.364000000
H     3.039000000    -0.568000000    -1.486000000
C     1.670000000     0.974000000    -2.164000000
C     2.649000000     1.461000000    -3.238000000
O     3.730000000     1.003000000    -3.397000000
O     2.272000000     2.178000000    -4.076000000
