17
-100.01291
C     0.839000000     1.438000000    -1.893000000
H     0.486000000     2.153000000    -2.632000000
C    -0.143000000     0.789000000    -1.131000000
H    -1.169000000     1.127000000    -1.256000000
C     0.250000000     0.036000000    -0.034000000
C    -0.697000000    -0.547000000     0.919000000
H    -0.248000000    -0.830000000     1.873000000
H    -1.540000000     0.123000000     1.102000000
H    -1.129000000    -1.420000000     0.425000000
C     1.592000000    -0.288000000     0.055000000
H     1.876000000    -0.972000000     0.851000000
C     2.548000000     0.210000000    -0.859000000
H     3.583000000    -0.121000000    -0.904000000
C     2.219000000     1.163000000    -1.815000000
C     3.242000000     1.811000000    -2.750000000
O     4.282000000     1.172000000    -2.986000000
O     3.044000000     2.916000000    -3.226000000
