17
-92.66334
C    -0.239000000    -2.473000000     1.419000000
H     0.236000000    -3.114000000     2.157000000
C     0.180000000    -1.168000000     1.292000000
H     0.950000000    -0.903000000     2.011000000
C    -0.278000000    -0.343000000     0.288000000
C     0.302000000     1.026000000     0.148000000
H     0.634000000     1.441000000     1.101000000
H     1.094000000     1.001000000    -0.603000000
H    -0.489000000     1.728000000    -0.127000000
C    -1.127000000    -0.872000000    -0.631000000
H    -1.545000000    -0.237000000    -1.408000000
C    -1.677000000    -2.164000000    -0.433000000
H    -2.450000000    -2.499000000    -1.120000000
C    -1.225000000    -2.994000000     0.605000000
C    -1.708000000    -4.401000000     0.779000000
O    -2.667000000    -4.792000000     0.191000000
O    -1.221000000    -5.135000000     1.617000000
