17
-96.33165
C     0.604000000     1.089000000    -2.037000000
H     0.289000000     1.908000000    -2.680000000
C    -0.217000000     0.544000000    -1.055000000
H    -1.211000000     0.951000000    -0.890000000
C     0.357000000    -0.435000000    -0.250000000
C    -0.467000000    -1.001000000     0.880000000
H    -0.141000000    -1.963000000     1.280000000
H    -0.514000000    -0.342000000     1.749000000
H    -1.494000000    -1.107000000     0.523000000
C     1.672000000    -0.730000000    -0.305000000
H     2.061000000    -1.442000000     0.419000000
C     2.407000000    -0.273000000    -1.371000000
H     3.467000000    -0.513000000    -1.401000000
C     1.918000000     0.684000000    -2.246000000
C     2.815000000     1.353000000    -3.322000000
O     3.881000000     0.900000000    -3.614000000
O     2.347000000     2.331000000    -3.873000000
