17
-79.03004
C     0.153000000     1.414000000    -2.129000000
H    -0.327000000     2.126000000    -2.796000000
C    -0.468000000     1.020000000    -0.916000000
H    -1.436000000     1.330000000    -0.532000000
C     0.178000000     0.055000000    -0.116000000
C    -0.371000000    -0.380000000     1.194000000
H    -1.369000000    -0.755000000     0.958000000
H     0.303000000    -1.089000000     1.678000000
H    -0.341000000     0.459000000     1.893000000
C     1.448000000    -0.413000000    -0.442000000
H     1.903000000    -1.141000000     0.226000000
C     2.069000000    -0.110000000    -1.591000000
H     3.000000000    -0.609000000    -1.846000000
C     1.436000000     0.781000000    -2.429000000
C     2.170000000     1.170000000    -3.692000000
O     3.280000000     0.810000000    -3.839000000
O     1.731000000     1.838000000    -4.579000000
