17
-96.77167
C    -0.216000000    -2.044000000     1.917000000
H     0.065000000    -2.427000000     2.894000000
C     0.233000000    -0.832000000     1.444000000
H     0.818000000    -0.231000000     2.135000000
C    -0.100000000    -0.412000000     0.181000000
C     0.330000000     0.993000000    -0.234000000
H     0.915000000     1.490000000     0.543000000
H     1.075000000     1.069000000    -1.030000000
H    -0.619000000     1.445000000    -0.530000000
C    -0.873000000    -1.229000000    -0.615000000
H    -1.141000000    -0.880000000    -1.609000000
C    -1.315000000    -2.486000000    -0.142000000
H    -1.947000000    -3.149000000    -0.728000000
C    -0.976000000    -2.919000000     1.168000000
C    -1.241000000    -4.350000000     1.729000000
O    -1.491000000    -5.256000000     0.935000000
O    -1.164000000    -4.604000000     2.916000000
