17
-87.22271
C     0.041000000     0.245000000    -2.614000000
H    -0.587000000     0.204000000    -3.500000000
C    -0.501000000     0.300000000    -1.253000000
H    -1.574000000     0.301000000    -1.075000000
C     0.460000000     0.262000000    -0.170000000
C     0.048000000     0.200000000     1.304000000
H    -0.242000000     1.128000000     1.800000000
H    -0.805000000    -0.479000000     1.251000000
H     0.898000000    -0.294000000     1.780000000
C     1.779000000     0.277000000    -0.548000000
H     2.595000000     0.208000000     0.166000000
C     2.317000000     0.146000000    -1.758000000
H     3.398000000     0.113000000    -1.868000000
C     1.453000000     0.151000000    -2.877000000
C     1.940000000     0.192000000    -4.314000000
O     3.166000000     0.253000000    -4.482000000
O     1.145000000     0.107000000    -5.217000000
