17
-95.47262
C    -0.346000000    -0.460000000    -2.724000000
H    -1.041000000    -0.176000000    -3.511000000
C    -0.521000000     0.129000000    -1.476000000
H    -1.358000000     0.795000000    -1.281000000
C     0.275000000    -0.188000000    -0.370000000
C    -0.027000000     0.310000000     1.007000000
H    -1.088000000     0.112000000     1.174000000
H     0.601000000    -0.189000000     1.748000000
H     0.262000000     1.342000000     1.215000000
C     1.309000000    -1.050000000    -0.497000000
H     1.839000000    -1.436000000     0.370000000
C     1.557000000    -1.647000000    -1.766000000
H     2.377000000    -2.341000000    -1.932000000
C     0.782000000    -1.254000000    -2.913000000
C     1.041000000    -1.994000000    -4.216000000
O     2.127000000    -2.539000000    -4.476000000
O     0.237000000    -1.769000000    -5.149000000
