17
-90.13334
C    -0.020000000     0.231000000    -2.708000000
H    -0.662000000     0.514000000    -3.538000000
C    -0.383000000     0.481000000    -1.405000000
H    -1.370000000     0.901000000    -1.230000000
C     0.382000000     0.002000000    -0.373000000
C    -0.063000000     0.342000000     1.024000000
H     0.201000000     1.339000000     1.382000000
H    -1.154000000     0.284000000     1.026000000
H     0.353000000    -0.455000000     1.643000000
C     1.572000000    -0.610000000    -0.588000000
H     2.153000000    -0.955000000     0.262000000
C     2.052000000    -0.731000000    -1.894000000
H     3.030000000    -1.205000000    -1.922000000
C     1.267000000    -0.256000000    -2.992000000
C     1.736000000    -0.446000000    -4.448000000
O     2.785000000    -0.925000000    -4.687000000
O     0.965000000    -0.087000000    -5.283000000
