17
-91.42812
C    -0.211000000    -0.395000000    -2.345000000
H    -0.752000000    -0.081000000    -3.234000000
C    -0.657000000     0.141000000    -1.182000000
H    -1.489000000     0.835000000    -1.260000000
C    -0.076000000    -0.205000000    -0.026000000
C    -0.507000000     0.537000000     1.290000000
H    -1.233000000     1.324000000     1.073000000
H    -0.830000000    -0.285000000     1.932000000
H     0.344000000     1.004000000     1.791000000
C     1.024000000    -1.049000000     0.007000000
H     1.442000000    -1.328000000     0.971000000
C     1.497000000    -1.594000000    -1.161000000
H     2.321000000    -2.302000000    -1.118000000
C     0.809000000    -1.291000000    -2.383000000
C     1.276000000    -1.852000000    -3.718000000
O     2.153000000    -2.674000000    -3.704000000
O     0.778000000    -1.462000000    -4.734000000
