17
-94.74281
C    -0.367000000    -0.551000000    -2.199000000
H    -0.862000000    -0.275000000    -3.126000000
C    -0.636000000     0.216000000    -1.064000000
H    -1.288000000     1.077000000    -1.194000000
C    -0.026000000    -0.176000000     0.151000000
C    -0.224000000     0.613000000     1.440000000
H    -0.261000000     0.015000000     2.353000000
H     0.594000000     1.328000000     1.553000000
H    -1.120000000     1.226000000     1.324000000
C     0.917000000    -1.154000000     0.209000000
H     1.347000000    -1.501000000     1.144000000
C     1.278000000    -1.855000000    -0.997000000
H     2.058000000    -2.610000000    -1.042000000
C     0.635000000    -1.536000000    -2.217000000
C     0.923000000    -2.361000000    -3.359000000
O     2.042000000    -2.819000000    -3.648000000
O    -0.026000000    -2.722000000    -4.069000000
