17
-97.20651
C    -1.203000000    -0.114000000    -2.632000000
H    -1.923000000     0.369000000    -3.288000000
C    -0.984000000     0.430000000    -1.395000000
H    -1.429000000     1.393000000    -1.156000000
C    -0.240000000    -0.205000000    -0.427000000
C    -0.293000000     0.225000000     1.024000000
H     0.726000000     0.301000000     1.407000000
H    -0.586000000     1.276000000     1.086000000
H    -0.934000000    -0.461000000     1.581000000
C     0.570000000    -1.301000000    -0.790000000
H     1.263000000    -1.749000000    -0.082000000
C     0.453000000    -1.761000000    -2.070000000
H     1.081000000    -2.593000000    -2.379000000
C    -0.516000000    -1.262000000    -2.957000000
C    -0.614000000    -1.719000000    -4.368000000
O    -0.278000000    -2.883000000    -4.626000000
O    -1.008000000    -0.982000000    -5.284000000
