17
-96.65081
C    -0.629000000    -0.698000000    -2.742000000
H    -1.174000000    -0.279000000    -3.583000000
C    -0.751000000    -0.035000000    -1.537000000
H    -1.279000000     0.915000000    -1.575000000
C    -0.035000000    -0.516000000    -0.384000000
C    -0.146000000     0.122000000     0.933000000
H    -1.100000000    -0.179000000     1.372000000
H     0.607000000    -0.252000000     1.630000000
H    -0.136000000     1.214000000     0.968000000
C     0.646000000    -1.725000000    -0.484000000
H     1.334000000    -2.047000000     0.294000000
C     0.607000000    -2.440000000    -1.621000000
H     1.019000000    -3.446000000    -1.630000000
C    -0.042000000    -1.961000000    -2.792000000
C     0.028000000    -2.750000000    -4.078000000
O     0.729000000    -3.740000000    -4.130000000
O    -0.532000000    -2.343000000    -5.106000000
