17
-96.70976
C    -0.855000000    -2.980000000     1.759000000
H    -0.717000000    -3.323000000     2.781000000
C    -0.385000000    -1.735000000     1.375000000
H     0.135000000    -1.122000000     2.106000000
C    -0.616000000    -1.261000000     0.113000000
C    -0.105000000     0.102000000    -0.299000000
H    -0.743000000     0.483000000    -1.099000000
H    -0.124000000     0.863000000     0.483000000
H     0.912000000     0.110000000    -0.698000000
C    -1.185000000    -2.114000000    -0.827000000
H    -1.442000000    -1.793000000    -1.833000000
C    -1.709000000    -3.362000000    -0.402000000
H    -2.156000000    -4.002000000    -1.158000000
C    -1.506000000    -3.832000000     0.873000000
C    -2.064000000    -5.141000000     1.371000000
O    -2.478000000    -5.937000000     0.533000000
O    -1.913000000    -5.495000000     2.498000000
