17
-98.70423
C    -1.230000000    -0.270000000    -2.953000000
H    -1.764000000     0.271000000    -3.730000000
C    -1.144000000     0.217000000    -1.634000000
H    -1.661000000     1.134000000    -1.363000000
C    -0.422000000    -0.551000000    -0.674000000
C    -0.596000000    -0.140000000     0.757000000
H    -1.043000000     0.854000000     0.819000000
H    -1.305000000    -0.808000000     1.250000000
H     0.350000000    -0.222000000     1.296000000
C     0.100000000    -1.792000000    -1.031000000
H     0.591000000    -2.355000000    -0.241000000
C    -0.042000000    -2.268000000    -2.338000000
H     0.426000000    -3.194000000    -2.661000000
C    -0.616000000    -1.536000000    -3.318000000
C    -0.793000000    -2.092000000    -4.693000000
O    -0.705000000    -3.279000000    -4.941000000
O    -1.078000000    -1.249000000    -5.536000000
