17
-87.43695
C    -0.348000000    -0.360000000    -2.338000000
H    -0.940000000     0.010000000    -3.171000000
C    -0.504000000     0.240000000    -1.042000000
H    -1.136000000     1.105000000    -0.858000000
C     0.177000000    -0.252000000    -0.006000000
C    -0.016000000     0.381000000     1.372000000
H    -0.670000000     1.255000000     1.336000000
H    -0.484000000    -0.387000000     1.991000000
H     0.858000000     0.605000000     1.988000000
C     1.047000000    -1.317000000    -0.119000000
H     1.509000000    -1.576000000     0.830000000
C     1.240000000    -1.929000000    -1.353000000
H     1.967000000    -2.731000000    -1.456000000
C     0.511000000    -1.495000000    -2.463000000
C     0.784000000    -2.050000000    -3.829000000
O     1.758000000    -2.829000000    -3.977000000
O     0.475000000    -1.357000000    -4.776000000
