17
-87.30508
C    -0.067000000     0.281000000    -2.314000000
H    -0.506000000     0.846000000    -3.133000000
C    -0.434000000     0.740000000    -0.996000000
H    -1.115000000     1.587000000    -0.962000000
C    -0.043000000     0.065000000     0.148000000
C    -0.529000000     0.471000000     1.477000000
H    -0.243000000     1.505000000     1.683000000
H    -1.612000000     0.505000000     1.620000000
H    -0.126000000    -0.145000000     2.283000000
C     0.776000000    -1.038000000    -0.027000000
H     1.204000000    -1.611000000     0.792000000
C     1.100000000    -1.537000000    -1.307000000
H     1.658000000    -2.467000000    -1.379000000
C     0.724000000    -0.843000000    -2.465000000
C     1.176000000    -1.303000000    -3.838000000
O     2.146000000    -2.062000000    -4.031000000
O     0.848000000    -0.662000000    -4.755000000
