17
-92.07356
C    -0.404000000    -2.734000000     2.074000000
H    -0.095000000    -3.164000000     3.024000000
C    -0.039000000    -1.362000000     1.718000000
H     0.645000000    -0.735000000     2.285000000
C    -0.522000000    -0.744000000     0.552000000
C    -0.067000000     0.614000000     0.047000000
H    -0.243000000     1.326000000     0.856000000
H     1.001000000     0.554000000    -0.173000000
H    -0.564000000     0.891000000    -0.885000000
C    -1.476000000    -1.491000000    -0.159000000
H    -1.912000000    -1.063000000    -1.058000000
C    -2.002000000    -2.699000000     0.254000000
H    -2.864000000    -3.133000000    -0.246000000
C    -1.476000000    -3.358000000     1.355000000
C    -2.056000000    -4.565000000     1.900000000
O    -3.028000000    -5.021000000     1.319000000
O    -1.446000000    -5.228000000     2.745000000
