17
-96.22440
C    -1.047000000    -2.391000000     1.142000000
H    -1.098000000    -2.866000000     2.118000000
C    -0.470000000    -1.092000000     1.058000000
H    -0.098000000    -0.628000000     1.968000000
C    -0.394000000    -0.348000000    -0.122000000
C     0.277000000     1.035000000    -0.270000000
H     0.492000000     1.451000000     0.717000000
H     1.162000000     1.076000000    -0.909000000
H    -0.353000000     1.825000000    -0.683000000
C    -0.898000000    -1.021000000    -1.244000000
H    -0.872000000    -0.512000000    -2.204000000
C    -1.436000000    -2.345000000    -1.169000000
H    -1.779000000    -2.891000000    -2.044000000
C    -1.608000000    -2.976000000     0.084000000
C    -2.210000000    -4.402000000     0.188000000
O    -2.105000000    -5.065000000    -0.826000000
O    -2.860000000    -4.775000000     1.171000000
