17
-93.89573
C    -0.857000000    -0.277000000    -2.272000000
H    -1.547000000     0.093000000    -3.026000000
C    -1.158000000    -0.105000000    -0.890000000
H    -2.115000000     0.333000000    -0.617000000
C    -0.278000000    -0.394000000     0.134000000
C    -0.644000000    -0.168000000     1.558000000
H    -1.287000000    -1.008000000     1.827000000
H     0.236000000    -0.079000000     2.199000000
H    -1.202000000     0.769000000     1.612000000
C     1.045000000    -0.815000000    -0.203000000
H     1.813000000    -1.027000000     0.537000000
C     1.262000000    -1.102000000    -1.596000000
H     2.278000000    -1.308000000    -1.923000000
C     0.362000000    -0.835000000    -2.620000000
C     0.642000000    -1.134000000    -4.078000000
O     1.717000000    -1.626000000    -4.447000000
O    -0.164000000    -0.911000000    -4.935000000
