17
-91.06668
C    -0.032000000    -0.786000000    -2.445000000
H    -0.492000000    -0.753000000    -3.430000000
C    -0.691000000    -0.347000000    -1.216000000
H    -1.758000000    -0.154000000    -1.138000000
C     0.017000000    -0.319000000    -0.013000000
C    -0.691000000     0.255000000     1.177000000
H    -1.689000000    -0.172000000     1.291000000
H    -0.179000000     0.045000000     2.119000000
H    -0.651000000     1.346000000     1.207000000
C     1.345000000    -0.708000000    -0.015000000
H     1.871000000    -0.659000000     0.936000000
C     1.965000000    -1.104000000    -1.207000000
H     2.966000000    -1.521000000    -1.132000000
C     1.317000000    -1.118000000    -2.433000000
C     2.087000000    -1.301000000    -3.724000000
O     3.292000000    -1.435000000    -3.696000000
O     1.599000000    -1.219000000    -4.829000000
