17
-92.71834
C     0.416000000    -1.051000000    -2.702000000
H    -0.113000000    -1.100000000    -3.650000000
C    -0.394000000    -0.620000000    -1.651000000
H    -1.398000000    -0.285000000    -1.900000000
C     0.173000000    -0.516000000    -0.357000000
C    -0.696000000    -0.025000000     0.756000000
H    -0.695000000    -0.858000000     1.461000000
H    -0.190000000     0.767000000     1.314000000
H    -1.683000000     0.279000000     0.401000000
C     1.518000000    -0.765000000    -0.137000000
H     1.977000000    -0.594000000     0.833000000
C     2.240000000    -1.338000000    -1.165000000
H     3.243000000    -1.690000000    -0.936000000
C     1.764000000    -1.421000000    -2.470000000
C     2.510000000    -2.080000000    -3.600000000
O     3.496000000    -2.836000000    -3.462000000
O     2.209000000    -1.830000000    -4.729000000
