17
-96.17367
C     0.133000000    -0.883000000    -2.739000000
H    -0.546000000    -0.862000000    -3.587000000
C    -0.422000000    -0.507000000    -1.518000000
H    -1.469000000    -0.224000000    -1.448000000
C     0.332000000    -0.510000000    -0.329000000
C    -0.286000000    -0.056000000     0.934000000
H    -0.531000000    -0.959000000     1.498000000
H     0.283000000     0.590000000     1.606000000
H    -1.205000000     0.488000000     0.711000000
C     1.676000000    -0.910000000    -0.457000000
H     2.224000000    -0.931000000     0.481000000
C     2.233000000    -1.284000000    -1.650000000
H     3.290000000    -1.535000000    -1.695000000
C     1.481000000    -1.367000000    -2.807000000
C     2.107000000    -1.924000000    -4.047000000
O     3.322000000    -1.927000000    -4.107000000
O     1.396000000    -2.174000000    -4.961000000
