17
-93.28542
C     0.444000000    -1.426000000    -2.633000000
H    -0.064000000    -1.843000000    -3.499000000
C    -0.262000000    -0.884000000    -1.536000000
H    -1.347000000    -0.825000000    -1.587000000
C     0.288000000    -0.525000000    -0.327000000
C    -0.692000000    -0.130000000     0.713000000
H    -1.710000000     0.070000000     0.373000000
H    -0.804000000    -0.943000000     1.434000000
H    -0.268000000     0.731000000     1.233000000
C     1.702000000    -0.454000000    -0.260000000
H     2.219000000     0.034000000     0.562000000
C     2.430000000    -0.972000000    -1.349000000
H     3.516000000    -0.990000000    -1.385000000
C     1.838000000    -1.422000000    -2.565000000
C     2.608000000    -1.760000000    -3.777000000
O     3.802000000    -1.606000000    -3.883000000
O     1.997000000    -2.233000000    -4.726000000
