17
-98.58431
C     0.241000000    -0.934000000    -3.059000000
H    -0.287000000    -0.966000000    -4.008000000
C    -0.342000000    -0.392000000    -1.913000000
H    -1.374000000    -0.053000000    -1.953000000
C     0.371000000    -0.424000000    -0.736000000
C    -0.280000000     0.188000000     0.464000000
H    -0.538000000    -0.449000000     1.312000000
H     0.383000000     1.004000000     0.760000000
H    -1.216000000     0.689000000     0.206000000
C     1.707000000    -0.891000000    -0.677000000
H     2.318000000    -0.812000000     0.218000000
C     2.302000000    -1.389000000    -1.854000000
H     3.346000000    -1.660000000    -1.718000000
C     1.580000000    -1.402000000    -3.065000000
C     2.162000000    -2.085000000    -4.307000000
O     3.363000000    -2.089000000    -4.475000000
O     1.380000000    -2.333000000    -5.241000000
