17
-98.15526
C    -0.788000000    -0.744000000    -2.531000000
H    -1.433000000    -0.500000000    -3.372000000
C    -1.186000000    -0.264000000    -1.289000000
H    -2.136000000     0.258000000    -1.219000000
C    -0.404000000    -0.373000000    -0.123000000
C    -0.906000000     0.170000000     1.211000000
H    -1.226000000     1.209000000     1.111000000
H    -1.752000000    -0.403000000     1.597000000
H    -0.104000000     0.100000000     1.950000000
C     0.850000000    -1.031000000    -0.273000000
H     1.643000000    -1.102000000     0.468000000
C     1.228000000    -1.510000000    -1.527000000
H     2.209000000    -1.977000000    -1.579000000
C     0.441000000    -1.352000000    -2.672000000
C     0.891000000    -1.834000000    -4.001000000
O     1.997000000    -2.313000000    -4.163000000
O     0.170000000    -1.755000000    -5.024000000
