17
-87.75855
C     0.471000000    -1.044000000    -2.336000000
H     0.025000000    -1.356000000    -3.277000000
C    -0.386000000    -0.627000000    -1.273000000
H    -1.466000000    -0.683000000    -1.378000000
C     0.160000000    -0.244000000    -0.053000000
C    -0.711000000     0.049000000     1.128000000
H    -0.873000000    -0.822000000     1.766000000
H    -0.200000000     0.875000000     1.628000000
H    -1.662000000     0.401000000     0.722000000
C     1.497000000    -0.131000000     0.026000000
H     1.909000000     0.128000000     0.998000000
C     2.379000000    -0.567000000    -0.949000000
H     3.443000000    -0.417000000    -0.784000000
C     1.865000000    -1.004000000    -2.184000000
C     2.762000000    -1.450000000    -3.260000000
O     3.931000000    -1.295000000    -3.134000000
O     2.283000000    -1.791000000    -4.289000000
