17
-94.13619
C     0.679000000    -0.516000000    -2.612000000
H     0.140000000    -0.554000000    -3.555000000
C    -0.132000000    -0.086000000    -1.542000000
H    -1.199000000     0.067000000    -1.681000000
C     0.418000000     0.031000000    -0.305000000
C    -0.382000000     0.541000000     0.884000000
H    -0.027000000     1.391000000     1.471000000
H    -1.434000000     0.763000000     0.694000000
H    -0.483000000    -0.167000000     1.708000000
C     1.804000000    -0.323000000    -0.088000000
H     2.067000000    -0.280000000     0.965000000
C     2.569000000    -0.764000000    -1.185000000
H     3.589000000    -1.106000000    -1.031000000
C     2.021000000    -0.959000000    -2.466000000
C     2.845000000    -1.485000000    -3.616000000
O     3.798000000    -2.219000000    -3.298000000
O     2.337000000    -1.467000000    -4.731000000
