17
-96.47350
C    -0.034000000    -0.223000000    -2.908000000
H    -0.629000000    -0.224000000    -3.818000000
C    -0.557000000     0.154000000    -1.694000000
H    -1.570000000     0.539000000    -1.603000000
C     0.191000000     0.092000000    -0.510000000
C    -0.490000000     0.351000000     0.800000000
H    -0.311000000    -0.477000000     1.489000000
H    -0.188000000     1.270000000     1.306000000
H    -1.580000000     0.400000000     0.742000000
C     1.450000000    -0.383000000    -0.590000000
H     1.931000000    -0.583000000     0.364000000
C     1.980000000    -0.781000000    -1.822000000
H     2.990000000    -1.181000000    -1.851000000
C     1.254000000    -0.747000000    -3.005000000
C     1.841000000    -1.168000000    -4.356000000
O     2.926000000    -1.728000000    -4.484000000
O     1.325000000    -0.666000000    -5.345000000
