17
-97.82649
C    -0.623000000    -1.047000000    -2.435000000
H    -1.377000000    -1.201000000    -3.203000000
C    -1.001000000    -0.272000000    -1.334000000
H    -1.936000000     0.236000000    -1.113000000
C    -0.007000000    -0.121000000    -0.349000000
C    -0.441000000     0.607000000     0.884000000
H    -0.601000000     1.665000000     0.663000000
H    -1.340000000     0.165000000     1.320000000
H     0.394000000     0.525000000     1.582000000
C     1.305000000    -0.551000000    -0.491000000
H     2.069000000    -0.196000000     0.195000000
C     1.615000000    -1.324000000    -1.617000000
H     2.629000000    -1.640000000    -1.851000000
C     0.677000000    -1.523000000    -2.661000000
C     1.012000000    -2.392000000    -3.822000000
O     1.986000000    -3.125000000    -3.801000000
O     0.322000000    -2.295000000    -4.847000000
