17
-97.56844
C    -0.058000000    -1.025000000    -2.210000000
H    -0.693000000    -1.340000000    -3.034000000
C    -0.732000000    -0.459000000    -1.083000000
H    -1.809000000    -0.311000000    -1.091000000
C     0.012000000     0.008000000     0.019000000
C    -0.586000000     0.696000000     1.167000000
H    -0.265000000     1.736000000     1.080000000
H    -1.678000000     0.666000000     1.163000000
H    -0.314000000     0.217000000     2.110000000
C     1.378000000    -0.222000000     0.067000000
H     1.857000000     0.102000000     0.987000000
C     2.108000000    -0.706000000    -1.092000000
H     3.177000000    -0.879000000    -0.998000000
C     1.365000000    -1.118000000    -2.200000000
C     2.070000000    -1.771000000    -3.406000000
O     3.278000000    -1.842000000    -3.477000000
O     1.364000000    -2.113000000    -4.349000000
