17
-89.81244
C     0.083000000    -0.875000000    -2.489000000
H    -0.430000000    -0.956000000    -3.444000000
C    -0.543000000    -0.180000000    -1.469000000
H    -1.546000000     0.227000000    -1.564000000
C     0.066000000    -0.042000000    -0.293000000
C    -0.670000000     0.411000000     0.900000000
H    -0.266000000     1.355000000     1.272000000
H    -1.740000000     0.579000000     0.764000000
H    -0.573000000    -0.455000000     1.559000000
C     1.364000000    -0.548000000    -0.089000000
H     1.917000000    -0.410000000     0.836000000
C     2.021000000    -1.304000000    -1.123000000
H     3.056000000    -1.610000000    -0.994000000
C     1.319000000    -1.545000000    -2.311000000
C     1.865000000    -2.396000000    -3.382000000
O     2.831000000    -3.072000000    -3.147000000
O     1.531000000    -2.135000000    -4.537000000
