17
-96.84015
C    -0.572000000    -2.427000000     1.606000000
H    -0.415000000    -2.926000000     2.559000000
C    -0.229000000    -1.120000000     1.444000000
H     0.240000000    -0.746000000     2.351000000
C    -0.546000000    -0.384000000     0.288000000
C     0.045000000     0.983000000     0.054000000
H     0.826000000     1.186000000     0.790000000
H     0.509000000     1.010000000    -0.934000000
H    -0.739000000     1.738000000     0.138000000
C    -1.209000000    -1.118000000    -0.721000000
H    -1.378000000    -0.635000000    -1.680000000
C    -1.612000000    -2.419000000    -0.537000000
H    -2.203000000    -2.927000000    -1.295000000
C    -1.292000000    -3.076000000     0.630000000
C    -1.650000000    -4.528000000     0.811000000
O    -1.930000000    -5.285000000    -0.129000000
O    -1.484000000    -5.069000000     1.932000000
