17
-94.02437
C     0.306000000    -1.233000000    -1.982000000
H    -0.241000000    -1.699000000    -2.798000000
C    -0.409000000    -0.532000000    -0.961000000
H    -1.490000000    -0.466000000    -1.047000000
C     0.349000000    -0.054000000     0.138000000
C    -0.345000000     0.716000000     1.242000000
H    -1.057000000     1.408000000     0.789000000
H    -0.922000000     0.010000000     1.844000000
H     0.331000000     1.263000000     1.902000000
C     1.723000000    -0.315000000     0.192000000
H     2.153000000     0.025000000     1.131000000
C     2.394000000    -1.066000000    -0.752000000
H     3.454000000    -1.288000000    -0.662000000
C     1.678000000    -1.381000000    -1.898000000
C     2.396000000    -2.247000000    -2.933000000
O     3.504000000    -2.700000000    -2.770000000
O     1.954000000    -2.218000000    -4.076000000
