17
-100.32017
C     0.018000000    -0.356000000    -2.847000000
H    -0.548000000    -0.632000000    -3.733000000
C    -0.666000000    -0.164000000    -1.625000000
H    -1.727000000    -0.397000000    -1.599000000
C    -0.056000000     0.280000000    -0.461000000
C    -0.890000000     0.546000000     0.757000000
H    -1.919000000     0.181000000     0.778000000
H    -0.427000000     0.161000000     1.668000000
H    -0.900000000     1.630000000     0.888000000
C     1.293000000     0.595000000    -0.544000000
H     1.845000000     0.982000000     0.308000000
C     2.012000000     0.323000000    -1.718000000
H     3.058000000     0.620000000    -1.723000000
C     1.387000000    -0.102000000    -2.941000000
C     2.096000000    -0.140000000    -4.302000000
O     3.307000000    -0.042000000    -4.269000000
O     1.498000000    -0.372000000    -5.361000000
