17
-97.33158
C    -0.172000000    -0.873000000    -2.788000000
H    -0.623000000    -1.437000000    -3.600000000
C    -0.777000000    -0.611000000    -1.564000000
H    -1.827000000    -0.847000000    -1.409000000
C    -0.065000000     0.069000000    -0.503000000
C    -0.772000000     0.619000000     0.768000000
H    -0.211000000     0.258000000     1.632000000
H    -0.751000000     1.710000000     0.743000000
H    -1.800000000     0.260000000     0.849000000
C     1.287000000     0.253000000    -0.639000000
H     1.842000000     0.743000000     0.157000000
C     1.904000000    -0.105000000    -1.820000000
H     2.955000000     0.156000000    -1.905000000
C     1.210000000    -0.547000000    -2.956000000
C     1.952000000    -0.974000000    -4.155000000
O     3.199000000    -0.915000000    -4.151000000
O     1.393000000    -1.529000000    -5.123000000
