17
-93.07891
C     0.149000000    -1.375000000    -2.382000000
H    -0.451000000    -1.791000000    -3.187000000
C    -0.649000000    -0.859000000    -1.280000000
H    -1.734000000    -0.917000000    -1.309000000
C     0.009000000    -0.315000000    -0.180000000
C    -0.810000000     0.202000000     1.005000000
H    -0.592000000    -0.382000000     1.902000000
H    -0.640000000     1.270000000     1.156000000
H    -1.882000000     0.066000000     0.848000000
C     1.364000000    -0.193000000    -0.173000000
H     1.953000000     0.129000000     0.682000000
C     2.158000000    -0.745000000    -1.148000000
H     3.234000000    -0.671000000    -1.011000000
C     1.526000000    -1.326000000    -2.330000000
C     2.441000000    -2.060000000    -3.314000000
O     3.636000000    -1.879000000    -3.158000000
O     2.065000000    -2.596000000    -4.377000000
