17
-94.09976
C     0.510000000    -0.296000000    -2.256000000
H     0.129000000    -0.731000000    -3.177000000
C    -0.370000000    -0.060000000    -1.189000000
H    -1.429000000    -0.251000000    -1.343000000
C     0.178000000     0.355000000     0.014000000
C    -0.650000000     0.502000000     1.229000000
H    -0.156000000     0.223000000     2.163000000
H    -0.830000000     1.553000000     1.468000000
H    -1.600000000    -0.025000000     1.121000000
C     1.572000000     0.399000000     0.217000000
H     1.975000000     0.482000000     1.224000000
C     2.460000000     0.292000000    -0.883000000
H     3.537000000     0.288000000    -0.736000000
C     1.954000000    -0.151000000    -2.034000000
C     2.859000000    -0.264000000    -3.221000000
O     4.098000000    -0.311000000    -3.113000000
O     2.301000000    -0.322000000    -4.305000000
