17
-88.47027
C    -0.449000000    -1.273000000    -2.666000000
H    -1.015000000    -1.263000000    -3.594000000
C    -0.802000000    -0.371000000    -1.617000000
H    -1.764000000     0.133000000    -1.662000000
C     0.013000000    -0.202000000    -0.518000000
C    -0.572000000     0.421000000     0.703000000
H     0.109000000     1.196000000     1.061000000
H    -1.562000000     0.825000000     0.483000000
H    -0.708000000    -0.237000000     1.564000000
C     1.234000000    -0.928000000    -0.472000000
H     1.891000000    -0.779000000     0.381000000
C     1.607000000    -1.734000000    -1.580000000
H     2.586000000    -2.183000000    -1.430000000
C     0.807000000    -1.843000000    -2.682000000
C     1.314000000    -2.478000000    -3.928000000
O     2.478000000    -2.749000000    -4.142000000
O     0.574000000    -2.621000000    -4.883000000
