17
-98.51300
C    -0.465000000    -2.517000000    -1.827000000
H    -1.280000000    -3.109000000    -2.235000000
C    -0.797000000    -1.570000000    -0.842000000
H    -1.835000000    -1.470000000    -0.535000000
C     0.138000000    -0.668000000    -0.453000000
C    -0.234000000     0.403000000     0.499000000
H     0.004000000     1.389000000     0.094000000
H    -1.303000000     0.218000000     0.628000000
H     0.229000000     0.252000000     1.476000000
C     1.509000000    -0.783000000    -0.906000000
H     2.305000000    -0.075000000    -0.686000000
C     1.833000000    -1.818000000    -1.795000000
H     2.876000000    -1.937000000    -2.074000000
C     0.854000000    -2.681000000    -2.275000000
C     1.186000000    -3.733000000    -3.347000000
O     2.248000000    -3.730000000    -4.002000000
O     0.268000000    -4.488000000    -3.656000000
