17
-92.65839
C    -0.657000000    -1.688000000    -2.113000000
H    -1.510000000    -2.128000000    -2.624000000
C    -0.834000000    -0.919000000    -0.942000000
H    -1.848000000    -0.774000000    -0.580000000
C     0.292000000    -0.299000000    -0.279000000
C     0.129000000     0.464000000     0.990000000
H     0.059000000     1.546000000     0.868000000
H    -0.753000000     0.020000000     1.455000000
H     1.046000000     0.204000000     1.523000000
C     1.558000000    -0.465000000    -0.874000000
H     2.400000000    -0.096000000    -0.294000000
C     1.711000000    -1.161000000    -2.030000000
H     2.689000000    -1.140000000    -2.504000000
C     0.640000000    -1.777000000    -2.674000000
C     0.833000000    -2.451000000    -4.014000000
O     1.719000000    -2.239000000    -4.819000000
O    -0.078000000    -3.171000000    -4.325000000
