17
-87.47461
C     0.408000000    -2.145000000    -2.652000000
H    -0.077000000    -2.884000000    -3.285000000
C    -0.304000000    -1.608000000    -1.572000000
H    -1.335000000    -1.915000000    -1.410000000
C     0.232000000    -0.643000000    -0.788000000
C    -0.697000000     0.160000000     0.092000000
H    -0.202000000     0.229000000     1.062000000
H    -1.017000000     1.158000000    -0.215000000
H    -1.589000000    -0.383000000     0.411000000
C     1.575000000    -0.216000000    -1.070000000
H     2.024000000     0.587000000    -0.491000000
C     2.276000000    -0.714000000    -2.153000000
H     3.275000000    -0.330000000    -2.344000000
C     1.747000000    -1.664000000    -2.964000000
C     2.427000000    -2.176000000    -4.249000000
O     3.460000000    -1.718000000    -4.770000000
O     1.836000000    -2.981000000    -4.909000000
