17
-95.57737
C    -0.896000000    -0.728000000    -2.534000000
H    -1.608000000    -0.531000000    -3.331000000
C    -1.006000000    -0.244000000    -1.272000000
H    -1.755000000     0.524000000    -1.098000000
C    -0.102000000    -0.608000000    -0.259000000
C    -0.101000000    -0.004000000     1.159000000
H    -0.735000000     0.886000000     1.180000000
H    -0.420000000    -0.698000000     1.939000000
H     0.942000000     0.263000000     1.338000000
C     0.864000000    -1.548000000    -0.519000000
H     1.600000000    -1.894000000     0.202000000
C     1.064000000    -1.983000000    -1.814000000
H     1.848000000    -2.635000000    -2.190000000
C     0.197000000    -1.612000000    -2.830000000
C     0.404000000    -2.093000000    -4.226000000
O     1.439000000    -2.637000000    -4.584000000
O    -0.490000000    -2.025000000    -5.076000000
