17
-98.72710
C    -0.831000000    -1.962000000    -2.010000000
H    -1.634000000    -2.428000000    -2.574000000
C    -1.080000000    -0.785000000    -1.227000000
H    -2.067000000    -0.331000000    -1.201000000
C    -0.068000000    -0.158000000    -0.458000000
C    -0.352000000     0.967000000     0.481000000
H    -0.050000000     1.923000000     0.046000000
H    -1.380000000     1.029000000     0.843000000
H     0.187000000     0.830000000     1.421000000
C     1.233000000    -0.631000000    -0.626000000
H     2.051000000    -0.156000000    -0.090000000
C     1.577000000    -1.733000000    -1.499000000
H     2.577000000    -2.149000000    -1.582000000
C     0.497000000    -2.448000000    -2.130000000
C     0.795000000    -3.756000000    -2.948000000
O     1.839000000    -4.297000000    -2.722000000
O    -0.083000000    -4.236000000    -3.680000000
