17
-98.76490
C    -1.189000000    -1.264000000    -1.941000000
H    -2.115000000    -1.470000000    -2.471000000
C    -1.090000000    -0.670000000    -0.694000000
H    -2.018000000    -0.361000000    -0.220000000
C     0.182000000    -0.419000000    -0.117000000
C     0.331000000     0.171000000     1.297000000
H     0.065000000    -0.670000000     1.941000000
H     1.336000000     0.526000000     1.535000000
H    -0.356000000     0.991000000     1.519000000
C     1.325000000    -0.736000000    -0.884000000
H     2.341000000    -0.722000000    -0.500000000
C     1.190000000    -1.308000000    -2.134000000
H     2.116000000    -1.374000000    -2.699000000
C    -0.070000000    -1.541000000    -2.760000000
C    -0.123000000    -1.980000000    -4.216000000
O     0.911000000    -2.041000000    -4.834000000
O    -1.230000000    -2.210000000    -4.695000000
