17
-82.54702
C    -1.579000000    -0.930000000    -1.972000000
H    -2.588000000    -0.890000000    -2.375000000
C    -1.182000000    -0.320000000    -0.745000000
H    -1.907000000     0.038000000    -0.019000000
C     0.138000000    -0.432000000    -0.316000000
C     0.481000000     0.064000000     1.104000000
H     0.039000000     1.059000000     1.187000000
H    -0.163000000    -0.548000000     1.739000000
H     1.536000000    -0.041000000     1.364000000
C     1.153000000    -0.906000000    -1.137000000
H     2.159000000    -0.841000000    -0.731000000
C     0.794000000    -1.401000000    -2.348000000
H     1.561000000    -1.802000000    -3.005000000
C    -0.576000000    -1.475000000    -2.793000000
C    -0.835000000    -2.235000000    -4.097000000
O     0.055000000    -2.647000000    -4.801000000
O    -1.896000000    -2.197000000    -4.579000000
