17
-91.47306
C    -1.587000000    -1.009000000    -2.436000000
H    -2.587000000    -1.042000000    -2.861000000
C    -1.419000000    -0.075000000    -1.394000000
H    -2.258000000     0.446000000    -0.938000000
C    -0.182000000    -0.108000000    -0.644000000
C    -0.044000000     0.678000000     0.610000000
H    -1.005000000     0.576000000     1.119000000
H     0.789000000     0.378000000     1.249000000
H     0.030000000     1.735000000     0.344000000
C     0.906000000    -0.901000000    -1.171000000
H     1.848000000    -0.838000000    -0.633000000
C     0.765000000    -1.710000000    -2.255000000
H     1.578000000    -2.366000000    -2.557000000
C    -0.437000000    -1.681000000    -2.965000000
C    -0.617000000    -2.497000000    -4.249000000
O     0.300000000    -2.978000000    -4.843000000
O    -1.723000000    -2.378000000    -4.758000000
