17
-98.37337
C    -1.945000000    -0.754000000    -1.996000000
H    -2.965000000    -0.731000000    -2.373000000
C    -1.655000000    -0.371000000    -0.689000000
H    -2.474000000    -0.106000000    -0.025000000
C    -0.355000000    -0.273000000    -0.203000000
C    -0.001000000     0.087000000     1.222000000
H     0.671000000     0.946000000     1.276000000
H    -0.886000000     0.464000000     1.739000000
H     0.505000000    -0.708000000     1.774000000
C     0.695000000    -0.379000000    -1.104000000
H     1.703000000    -0.211000000    -0.734000000
C     0.430000000    -0.641000000    -2.445000000
H     1.296000000    -0.747000000    -3.093000000
C    -0.890000000    -0.917000000    -2.914000000
C    -1.180000000    -1.208000000    -4.329000000
O    -0.338000000    -1.575000000    -5.131000000
O    -2.355000000    -1.108000000    -4.722000000
