17
-84.37022
C    -2.044000000     0.129000000    -1.796000000
H    -3.123000000     0.008000000    -1.739000000
C    -1.479000000     0.222000000    -0.513000000
H    -2.145000000     0.296000000     0.343000000
C    -0.129000000     0.187000000    -0.426000000
C     0.483000000     0.151000000     0.979000000
H     1.546000000    -0.064000000     0.848000000
H     0.458000000     1.146000000     1.430000000
H     0.073000000    -0.535000000     1.723000000
C     0.731000000     0.198000000    -1.557000000
H     1.808000000     0.256000000    -1.420000000
C     0.100000000     0.163000000    -2.852000000
H     0.627000000     0.049000000    -3.796000000
C    -1.303000000     0.130000000    -3.001000000
C    -2.008000000    -0.042000000    -4.297000000
O    -1.405000000    -0.386000000    -5.278000000
O    -3.137000000     0.247000000    -4.425000000
