17
-80.23676
C    -1.470000000    -0.168000000    -1.839000000
H    -2.483000000     0.013000000    -2.189000000
C    -1.222000000    -0.046000000    -0.511000000
H    -2.056000000     0.166000000     0.153000000
C     0.122000000    -0.154000000    -0.085000000
C     0.347000000    -0.009000000     1.326000000
H     1.187000000    -0.580000000     1.728000000
H     0.673000000     1.013000000     1.530000000
H    -0.492000000    -0.398000000     1.907000000
C     1.151000000    -0.420000000    -1.012000000
H     2.190000000    -0.560000000    -0.727000000
C     0.786000000    -0.564000000    -2.351000000
H     1.597000000    -0.830000000    -3.025000000
C    -0.491000000    -0.437000000    -2.857000000
C    -0.736000000    -0.463000000    -4.293000000
O     0.115000000    -0.649000000    -5.077000000
O    -1.794000000    -0.098000000    -4.673000000
