17
-94.85169
C    -0.105000000    -2.489000000     1.261000000
H    -0.029000000    -2.981000000     2.227000000
C     0.334000000    -1.162000000     1.251000000
H     0.813000000    -0.720000000     2.120000000
C    -0.015000000    -0.417000000     0.106000000
C     0.236000000     1.065000000     0.148000000
H     1.202000000     1.151000000    -0.353000000
H    -0.593000000     1.585000000    -0.338000000
H     0.353000000     1.463000000     1.158000000
C    -0.657000000    -0.968000000    -1.019000000
H    -0.964000000    -0.315000000    -1.832000000
C    -1.013000000    -2.329000000    -0.977000000
H    -1.675000000    -2.633000000    -1.784000000
C    -0.735000000    -3.109000000     0.165000000
C    -1.074000000    -4.558000000     0.189000000
O    -1.463000000    -4.985000000    -0.917000000
O    -0.751000000    -5.209000000     1.117000000
