17
-88.61034
C    -1.898000000    -0.183000000    -1.741000000
H    -2.938000000    -0.077000000    -2.038000000
C    -1.529000000     0.084000000    -0.471000000
H    -2.288000000     0.337000000     0.265000000
C    -0.183000000    -0.089000000    -0.097000000
C     0.218000000     0.206000000     1.274000000
H     1.010000000    -0.466000000     1.611000000
H     0.590000000     1.208000000     1.496000000
H    -0.528000000    -0.107000000     2.009000000
C     0.747000000    -0.577000000    -0.978000000
H     1.745000000    -0.781000000    -0.599000000
C     0.306000000    -0.912000000    -2.316000000
H     0.930000000    -1.454000000    -3.024000000
C    -1.011000000    -0.698000000    -2.723000000
C    -1.442000000    -1.055000000    -4.162000000
O    -0.672000000    -1.510000000    -4.951000000
O    -2.492000000    -0.654000000    -4.607000000
