17
-82.78548
C    -1.536000000    -0.005000000    -1.940000000
H    -2.546000000    -0.100000000    -2.331000000
C    -1.167000000     0.125000000    -0.610000000
H    -1.934000000     0.027000000     0.154000000
C     0.120000000     0.105000000    -0.149000000
C     0.324000000    -0.266000000     1.310000000
H     1.385000000    -0.205000000     1.561000000
H    -0.255000000     0.502000000     1.828000000
H    -0.010000000    -1.296000000     1.456000000
C     1.147000000     0.190000000    -1.091000000
H     2.195000000     0.024000000    -0.856000000
C     0.788000000     0.339000000    -2.500000000
H     1.561000000     0.417000000    -3.261000000
C    -0.550000000     0.224000000    -2.876000000
C    -0.894000000     0.353000000    -4.355000000
O    -0.075000000     0.579000000    -5.205000000
O    -2.025000000     0.397000000    -4.673000000
