17
-94.90143
C    -1.199000000     0.506000000    -2.307000000
H    -1.883000000     1.188000000    -2.805000000
C    -1.109000000     0.479000000    -0.941000000
H    -1.724000000     1.146000000    -0.342000000
C    -0.130000000    -0.282000000    -0.301000000
C    -0.026000000    -0.307000000     1.218000000
H     0.950000000    -0.058000000     1.640000000
H    -0.691000000     0.494000000     1.547000000
H    -0.365000000    -1.167000000     1.799000000
C     0.741000000    -1.008000000    -1.085000000
H     1.583000000    -1.555000000    -0.668000000
C     0.597000000    -1.022000000    -2.458000000
H     1.258000000    -1.659000000    -3.040000000
C    -0.372000000    -0.304000000    -3.085000000
C    -0.472000000    -0.337000000    -4.586000000
O     0.341000000    -0.923000000    -5.288000000
O    -1.325000000     0.315000000    -5.122000000
