17
-93.98667
C    -1.647000000     0.180000000    -1.939000000
H    -2.619000000     0.515000000    -2.291000000
C    -1.267000000     0.265000000    -0.560000000
H    -2.083000000     0.457000000     0.132000000
C    -0.061000000    -0.206000000    -0.074000000
C     0.241000000    -0.256000000     1.414000000
H     0.685000000    -1.166000000     1.823000000
H     0.824000000     0.613000000     1.725000000
H    -0.728000000    -0.094000000     1.892000000
C     0.945000000    -0.544000000    -0.986000000
H     1.779000000    -1.156000000    -0.652000000
C     0.695000000    -0.540000000    -2.347000000
H     1.498000000    -0.769000000    -3.043000000
C    -0.637000000    -0.239000000    -2.843000000
C    -0.869000000    -0.118000000    -4.331000000
O     0.063000000    -0.112000000    -5.109000000
O    -2.034000000    -0.068000000    -4.758000000
