17
-88.82717
C    -0.829000000     0.977000000    -2.276000000
H    -1.472000000     1.522000000    -2.962000000
C    -1.015000000     0.961000000    -0.861000000
H    -1.831000000     1.473000000    -0.358000000
C    -0.106000000     0.290000000    -0.058000000
C    -0.154000000     0.270000000     1.454000000
H     0.775000000    -0.039000000     1.936000000
H    -0.400000000     1.301000000     1.718000000
H    -0.775000000    -0.581000000     1.740000000
C     0.986000000    -0.331000000    -0.623000000
H     1.656000000    -0.859000000     0.050000000
C     1.225000000    -0.363000000    -1.995000000
H     2.004000000    -0.922000000    -2.506000000
C     0.357000000     0.386000000    -2.795000000
C     0.603000000     0.522000000    -4.330000000
O     1.104000000    -0.444000000    -4.937000000
O     0.030000000     1.345000000    -4.935000000
