17
-82.29191
C    -0.228000000     0.819000000    -2.248000000
H    -0.808000000     1.604000000    -2.726000000
C    -0.282000000     0.704000000    -0.880000000
H    -0.799000000     1.518000000    -0.378000000
C     0.427000000    -0.206000000    -0.187000000
C     0.171000000    -0.361000000     1.274000000
H     0.022000000     0.498000000     1.932000000
H    -0.833000000    -0.759000000     1.439000000
H     0.960000000    -0.968000000     1.723000000
C     1.109000000    -1.144000000    -0.914000000
H     1.568000000    -1.931000000    -0.321000000
C     1.124000000    -1.104000000    -2.284000000
H     1.598000000    -1.911000000    -2.837000000
C     0.494000000    -0.088000000    -2.966000000
C     0.551000000     0.020000000    -4.438000000
O     1.203000000    -0.757000000    -5.084000000
O     0.007000000     0.898000000    -5.011000000
