17
-96.81081
C    -0.987000000     0.445000000    -2.205000000
H    -1.889000000     0.779000000    -2.713000000
C    -0.879000000     0.621000000    -0.846000000
H    -1.651000000     1.144000000    -0.286000000
C     0.195000000     0.093000000    -0.152000000
C     0.346000000     0.280000000     1.371000000
H    -0.561000000    -0.069000000     1.868000000
H     1.256000000    -0.179000000     1.764000000
H     0.435000000     1.339000000     1.624000000
C     1.216000000    -0.566000000    -0.846000000
H     2.133000000    -0.968000000    -0.422000000
C     1.130000000    -0.688000000    -2.250000000
H     1.965000000    -1.221000000    -2.698000000
C     0.001000000    -0.268000000    -2.931000000
C     0.071000000    -0.261000000    -4.448000000
O     1.025000000    -0.696000000    -5.133000000
O    -0.953000000     0.028000000    -5.051000000
