17
-93.37693
C    -0.023000000    -2.749000000     1.676000000
H     0.559000000    -3.317000000     2.397000000
C     0.083000000    -1.403000000     1.640000000
H     0.701000000    -0.842000000     2.337000000
C    -0.358000000    -0.753000000     0.442000000
C     0.142000000     0.643000000     0.256000000
H     1.113000000     0.565000000    -0.238000000
H    -0.531000000     1.215000000    -0.387000000
H     0.214000000     1.291000000     1.132000000
C    -1.089000000    -1.421000000    -0.567000000
H    -1.352000000    -0.871000000    -1.466000000
C    -1.306000000    -2.767000000    -0.370000000
H    -1.836000000    -3.335000000    -1.131000000
C    -0.741000000    -3.490000000     0.719000000
C    -0.813000000    -4.960000000     0.728000000
O    -1.128000000    -5.664000000    -0.273000000
O    -0.860000000    -5.456000000     1.856000000
