17
-92.75497
C    -1.439000000    -0.265000000    -2.731000000
H    -2.320000000    -0.149000000    -3.357000000
C    -1.559000000     0.144000000    -1.418000000
H    -2.455000000     0.589000000    -0.992000000
C    -0.499000000    -0.146000000    -0.516000000
C    -0.589000000     0.206000000     0.954000000
H     0.308000000     0.717000000     1.311000000
H    -1.430000000     0.876000000     1.145000000
H    -0.712000000    -0.702000000     1.548000000
C     0.650000000    -0.821000000    -0.978000000
H     1.505000000    -1.074000000    -0.356000000
C     0.787000000    -1.177000000    -2.314000000
H     1.710000000    -1.645000000    -2.647000000
C    -0.297000000    -0.939000000    -3.136000000
C    -0.301000000    -1.474000000    -4.522000000
O     0.791000000    -1.433000000    -5.085000000
O    -1.325000000    -1.430000000    -5.172000000
