17
-96.93041
C    -1.391000000     1.183000000    -1.768000000
H    -2.360000000     1.443000000    -2.187000000
C    -1.160000000     0.693000000    -0.484000000
H    -1.963000000     0.683000000     0.249000000
C     0.106000000     0.288000000    -0.074000000
C     0.198000000    -0.155000000     1.374000000
H    -0.396000000    -1.059000000     1.524000000
H     1.212000000    -0.490000000     1.600000000
H    -0.051000000     0.667000000     2.047000000
C     1.136000000     0.224000000    -0.956000000
H     2.083000000    -0.169000000    -0.597000000
C     0.955000000     0.760000000    -2.255000000
H     1.857000000     0.806000000    -2.861000000
C    -0.277000000     1.201000000    -2.667000000
C    -0.444000000     1.658000000    -4.046000000
O     0.537000000     1.991000000    -4.711000000
O    -1.542000000     1.731000000    -4.550000000
