17
-87.82581
C    -0.898000000     0.822000000    -2.275000000
H    -1.752000000     1.256000000    -2.788000000
C    -0.964000000     0.677000000    -0.936000000
H    -1.851000000     0.918000000    -0.356000000
C     0.017000000     0.004000000    -0.266000000
C    -0.126000000    -0.271000000     1.245000000
H     0.610000000     0.374000000     1.729000000
H    -1.048000000     0.119000000     1.682000000
H     0.048000000    -1.323000000     1.482000000
C     1.150000000    -0.336000000    -1.021000000
H     1.800000000    -0.928000000    -0.382000000
C     1.231000000    -0.250000000    -2.364000000
H     2.067000000    -0.593000000    -2.969000000
C     0.172000000     0.368000000    -3.041000000
C     0.180000000     0.600000000    -4.538000000
O     1.171000000     0.413000000    -5.215000000
O    -0.829000000     0.915000000    -5.174000000
