17
-97.43072
C    -1.373000000     0.146000000    -2.162000000
H    -2.295000000     0.336000000    -2.706000000
C    -1.197000000     0.238000000    -0.810000000
H    -2.017000000     0.566000000    -0.176000000
C    -0.052000000    -0.022000000    -0.148000000
C     0.108000000    -0.057000000     1.330000000
H     0.947000000     0.584000000     1.611000000
H    -0.750000000     0.288000000     1.910000000
H     0.252000000    -1.073000000     1.703000000
C     1.015000000    -0.485000000    -0.885000000
H     1.971000000    -0.706000000    -0.417000000
C     0.934000000    -0.594000000    -2.292000000
H     1.745000000    -0.959000000    -2.916000000
C    -0.275000000    -0.338000000    -2.922000000
C    -0.412000000    -0.447000000    -4.423000000
O     0.595000000    -0.607000000    -5.077000000
O    -1.484000000    -0.173000000    -4.941000000
