17
-90.22976
C    -0.865000000     1.277000000    -2.162000000
H    -1.819000000     1.678000000    -2.493000000
C    -0.721000000     0.844000000    -0.852000000
H    -1.551000000     1.124000000    -0.208000000
C     0.319000000     0.098000000    -0.448000000
C     0.453000000    -0.383000000     0.922000000
H    -0.467000000    -0.945000000     1.093000000
H     1.349000000    -0.921000000     1.239000000
H     0.388000000     0.492000000     1.572000000
C     1.266000000    -0.316000000    -1.343000000
H     2.071000000    -0.918000000    -0.930000000
C     1.247000000     0.164000000    -2.648000000
H     2.058000000    -0.030000000    -3.346000000
C     0.169000000     0.962000000    -3.061000000
C    -0.128000000     1.187000000    -4.528000000
O     0.770000000     0.903000000    -5.328000000
O    -1.086000000     1.824000000    -4.916000000
