17
-89.75986
C    -0.594000000    -2.653000000     1.110000000
H    -0.478000000    -3.338000000     1.946000000
C    -0.293000000    -1.318000000     1.156000000
H     0.024000000    -0.962000000     2.133000000
C    -0.199000000    -0.536000000    -0.026000000
C     0.318000000     0.911000000    -0.031000000
H    -0.392000000     1.373000000    -0.720000000
H     0.289000000     1.366000000     0.961000000
H     1.355000000     0.957000000    -0.370000000
C    -0.424000000    -1.179000000    -1.252000000
H    -0.369000000    -0.558000000    -2.142000000
C    -0.809000000    -2.485000000    -1.303000000
H    -0.931000000    -3.043000000    -2.228000000
C    -0.891000000    -3.214000000    -0.111000000
C    -1.092000000    -4.675000000    -0.200000000
O    -1.076000000    -5.316000000    -1.250000000
O    -1.267000000    -5.311000000     0.796000000
