17
-96.44989
C    -1.131000000    -2.897000000    -0.410000000
H    -2.024000000    -3.497000000    -0.251000000
C    -1.230000000    -1.589000000    -0.002000000
H    -2.162000000    -1.210000000     0.409000000
C    -0.229000000    -0.716000000    -0.217000000
C    -0.425000000     0.797000000    -0.003000000
H    -1.255000000     1.053000000     0.659000000
H     0.459000000     1.262000000     0.439000000
H    -0.720000000     1.210000000    -0.970000000
C     0.918000000    -1.100000000    -0.899000000
H     1.587000000    -0.305000000    -1.218000000
C     1.040000000    -2.438000000    -1.268000000
H     1.994000000    -2.742000000    -1.692000000
C     0.102000000    -3.397000000    -0.953000000
C     0.231000000    -4.868000000    -1.417000000
O     1.084000000    -5.160000000    -2.233000000
O    -0.497000000    -5.716000000    -0.887000000
