17
-95.48651
C    -2.370000000    -0.398000000    -1.897000000
H    -3.412000000    -0.110000000    -2.008000000
C    -1.759000000    -0.132000000    -0.683000000
H    -2.228000000     0.521000000     0.049000000
C    -0.492000000    -0.552000000    -0.405000000
C     0.258000000    -0.220000000     0.829000000
H     0.921000000     0.629000000     0.649000000
H    -0.508000000     0.054000000     1.557000000
H     0.799000000    -1.065000000     1.261000000
C     0.114000000    -1.461000000    -1.317000000
H     1.079000000    -1.929000000    -1.138000000
C    -0.484000000    -1.706000000    -2.536000000
H     0.021000000    -2.391000000    -3.212000000
C    -1.738000000    -1.269000000    -2.798000000
C    -2.489000000    -1.721000000    -3.981000000
O    -1.863000000    -2.317000000    -4.845000000
O    -3.639000000    -1.344000000    -4.166000000
