17
-95.81224
C    -1.650000000     0.353000000    -2.231000000
H    -2.591000000     0.810000000    -2.527000000
C    -1.096000000     0.591000000    -0.960000000
H    -1.673000000     1.101000000    -0.194000000
C     0.151000000     0.065000000    -0.673000000
C     0.630000000     0.051000000     0.753000000
H    -0.139000000    -0.222000000     1.479000000
H     1.435000000    -0.671000000     0.908000000
H     1.150000000     0.986000000     0.972000000
C     0.816000000    -0.697000000    -1.593000000
H     1.807000000    -1.119000000    -1.442000000
C     0.254000000    -0.964000000    -2.838000000
H     0.711000000    -1.567000000    -3.620000000
C    -0.921000000    -0.329000000    -3.213000000
C    -1.370000000    -0.225000000    -4.684000000
O    -0.645000000    -0.661000000    -5.537000000
O    -2.293000000     0.551000000    -4.979000000
