17
-96.39273
C    -2.012000000    -0.803000000    -1.885000000
H    -3.009000000    -0.558000000    -2.241000000
C    -1.530000000    -0.369000000    -0.656000000
H    -2.212000000     0.124000000     0.032000000
C    -0.223000000    -0.620000000    -0.248000000
C     0.266000000    -0.281000000     1.138000000
H    -0.086000000     0.690000000     1.493000000
H    -0.007000000    -1.124000000     1.777000000
H     1.342000000    -0.112000000     1.059000000
C     0.665000000    -1.228000000    -1.122000000
H     1.713000000    -1.285000000    -0.842000000
C     0.198000000    -1.630000000    -2.365000000
H     0.833000000    -2.156000000    -3.072000000
C    -1.116000000    -1.420000000    -2.738000000
C    -1.580000000    -1.705000000    -4.206000000
O    -0.724000000    -2.018000000    -4.960000000
O    -2.734000000    -1.640000000    -4.536000000
