17
-89.39406
C    -1.749000000    -0.240000000    -1.867000000
H    -2.639000000     0.178000000    -2.331000000
C    -1.194000000     0.090000000    -0.695000000
H    -1.733000000     0.803000000    -0.077000000
C    -0.035000000    -0.439000000    -0.136000000
C     0.405000000    -0.138000000     1.318000000
H    -0.117000000    -0.916000000     1.879000000
H     1.485000000    -0.076000000     1.463000000
H     0.017000000     0.791000000     1.742000000
C     0.687000000    -1.274000000    -0.925000000
H     1.646000000    -1.633000000    -0.562000000
C     0.189000000    -1.707000000    -2.139000000
H     0.743000000    -2.395000000    -2.772000000
C    -1.049000000    -1.178000000    -2.612000000
C    -1.512000000    -1.537000000    -3.968000000
O    -0.740000000    -2.126000000    -4.760000000
O    -2.579000000    -1.217000000    -4.405000000
