17
-98.20708
C    -0.895000000     1.511000000    -1.778000000
H    -1.207000000     2.513000000    -2.060000000
C    -0.432000000     1.261000000    -0.483000000
H    -0.472000000     2.061000000     0.252000000
C     0.027000000     0.005000000    -0.191000000
C     0.551000000    -0.419000000     1.142000000
H     0.277000000    -1.444000000     1.401000000
H     1.640000000    -0.506000000     1.166000000
H     0.148000000     0.172000000     1.967000000
C     0.049000000    -1.013000000    -1.179000000
H     0.401000000    -1.974000000    -0.815000000
C    -0.366000000    -0.755000000    -2.460000000
H    -0.355000000    -1.571000000    -3.179000000
C    -0.899000000     0.511000000    -2.738000000
C    -1.517000000     0.761000000    -4.142000000
O    -1.348000000    -0.073000000    -5.027000000
O    -2.192000000     1.733000000    -4.423000000
