17
-94.96020
C    -2.253000000     0.088000000    -2.159000000
H    -3.015000000     0.750000000    -2.562000000
C    -1.540000000     0.340000000    -1.004000000
H    -1.766000000     1.235000000    -0.430000000
C    -0.533000000    -0.538000000    -0.555000000
C     0.194000000    -0.224000000     0.753000000
H     0.832000000    -1.096000000     0.913000000
H     0.744000000     0.709000000     0.610000000
H    -0.538000000    -0.129000000     1.557000000
C    -0.314000000    -1.753000000    -1.279000000
H     0.460000000    -2.450000000    -0.967000000
C    -1.017000000    -1.980000000    -2.426000000
H    -0.879000000    -2.975000000    -2.842000000
C    -1.970000000    -1.083000000    -2.913000000
C    -2.844000000    -1.447000000    -4.084000000
O    -2.419000000    -2.237000000    -4.876000000
O    -3.803000000    -0.722000000    -4.405000000
