17
-86.36198
C    -0.493000000     1.740000000    -2.159000000
H    -0.934000000     2.714000000    -2.355000000
C    -0.359000000     1.357000000    -0.797000000
H    -0.603000000     2.068000000    -0.012000000
C     0.149000000     0.080000000    -0.395000000
C     0.138000000    -0.293000000     0.996000000
H     0.928000000    -0.988000000     1.288000000
H     0.296000000     0.590000000     1.618000000
H    -0.868000000    -0.665000000     1.201000000
C     0.436000000    -0.733000000    -1.404000000
H     0.885000000    -1.708000000    -1.231000000
C     0.236000000    -0.436000000    -2.708000000
H     0.362000000    -1.208000000    -3.462000000
C    -0.212000000     0.820000000    -3.074000000
C    -0.429000000     1.164000000    -4.567000000
O    -0.391000000     0.304000000    -5.381000000
O    -0.719000000     2.328000000    -4.926000000
