17
-82.84495
C     0.034000000     1.251000000    -2.433000000
H     0.130000000     2.170000000    -3.005000000
C     0.034000000     1.259000000    -1.013000000
H     0.256000000     2.153000000    -0.436000000
C    -0.055000000     0.060000000    -0.373000000
C    -0.020000000    -0.138000000     1.085000000
H    -1.028000000    -0.502000000     1.291000000
H     0.870000000    -0.742000000     1.276000000
H    -0.025000000     0.795000000     1.651000000
C    -0.042000000    -1.125000000    -1.123000000
H    -0.070000000    -2.096000000    -0.636000000
C     0.125000000    -1.124000000    -2.538000000
H     0.144000000    -2.072000000    -3.069000000
C    -0.094000000     0.091000000    -3.150000000
C    -0.249000000     0.221000000    -4.644000000
O    -0.595000000    -0.732000000    -5.303000000
O     0.290000000     1.128000000    -5.222000000
