17
-90.32073
C    -1.349000000    -2.799000000    -0.439000000
H    -2.153000000    -3.500000000    -0.228000000
C    -1.344000000    -1.475000000     0.058000000
H    -2.230000000    -1.202000000     0.626000000
C    -0.230000000    -0.669000000    -0.187000000
C    -0.246000000     0.766000000     0.340000000
H    -1.210000000     1.171000000     0.654000000
H     0.478000000     0.867000000     1.151000000
H     0.174000000     1.367000000    -0.469000000
C     0.919000000    -1.137000000    -0.826000000
H     1.763000000    -0.482000000    -1.028000000
C     0.889000000    -2.432000000    -1.279000000
H     1.817000000    -2.741000000    -1.753000000
C    -0.175000000    -3.303000000    -1.073000000
C    -0.080000000    -4.691000000    -1.654000000
O     0.828000000    -5.064000000    -2.270000000
O    -0.986000000    -5.431000000    -1.343000000
