17
-100.41394
C    -0.118000000     1.524000000    -1.750000000
H    -0.364000000     2.499000000    -2.163000000
C     0.066000000     1.310000000    -0.343000000
H    -0.074000000     2.158000000     0.322000000
C     0.423000000     0.043000000     0.125000000
C     0.511000000    -0.215000000     1.599000000
H    -0.382000000    -0.785000000     1.862000000
H     1.331000000    -0.887000000     1.860000000
H     0.583000000     0.762000000     2.083000000
C     0.402000000    -1.036000000    -0.782000000
H     0.442000000    -2.078000000    -0.476000000
C     0.297000000    -0.852000000    -2.134000000
H     0.314000000    -1.720000000    -2.788000000
C     0.016000000     0.438000000    -2.641000000
C    -0.239000000     0.564000000    -4.142000000
O    -0.219000000    -0.399000000    -4.894000000
O    -0.471000000     1.697000000    -4.584000000
