17
-97.42238
C    -0.184000000     1.483000000    -2.071000000
H    -0.298000000     2.511000000    -2.404000000
C    -0.242000000     1.209000000    -0.720000000
H    -0.393000000     2.041000000    -0.037000000
C     0.046000000    -0.121000000    -0.302000000
C     0.243000000    -0.307000000     1.218000000
H     0.812000000    -1.226000000     1.375000000
H     0.843000000     0.494000000     1.654000000
H    -0.661000000    -0.515000000     1.794000000
C     0.186000000    -1.146000000    -1.205000000
H     0.470000000    -2.149000000    -0.897000000
C     0.100000000    -0.875000000    -2.600000000
H     0.234000000    -1.614000000    -3.385000000
C     0.000000000     0.485000000    -2.960000000
C     0.084000000     0.797000000    -4.457000000
O     0.232000000    -0.127000000    -5.299000000
O    -0.061000000     1.931000000    -4.810000000
