17
-99.51179
C    -0.337000000     1.110000000    -2.226000000
H    -0.623000000     1.946000000    -2.859000000
C    -0.312000000     1.223000000    -0.815000000
H    -0.629000000     2.184000000    -0.417000000
C     0.092000000     0.070000000    -0.096000000
C     0.023000000     0.052000000     1.361000000
H     0.972000000    -0.185000000     1.847000000
H    -0.358000000     1.026000000     1.677000000
H    -0.724000000    -0.620000000     1.788000000
C     0.287000000    -1.123000000    -0.739000000
H     0.522000000    -2.017000000    -0.166000000
C     0.218000000    -1.195000000    -2.148000000
H     0.323000000    -2.211000000    -2.521000000
C    -0.091000000    -0.117000000    -2.875000000
C    -0.096000000    -0.207000000    -4.379000000
O     0.058000000    -1.357000000    -4.816000000
O    -0.224000000     0.823000000    -5.057000000
