17
-99.65509
C    -0.684000000     0.925000000    -2.341000000
H    -0.918000000     1.812000000    -2.925000000
C    -0.832000000     0.994000000    -0.922000000
H    -1.403000000     1.856000000    -0.586000000
C    -0.309000000     0.000000000    -0.070000000
C    -0.647000000    -0.077000000     1.384000000
H     0.216000000    -0.418000000     1.961000000
H    -0.981000000     0.873000000     1.806000000
H    -1.413000000    -0.855000000     1.427000000
C     0.405000000    -1.030000000    -0.636000000
H     0.864000000    -1.814000000    -0.039000000
C     0.520000000    -1.135000000    -2.017000000
H     1.145000000    -1.908000000    -2.455000000
C     0.006000000    -0.189000000    -2.925000000
C     0.314000000    -0.281000000    -4.371000000
O     0.672000000    -1.386000000    -4.732000000
O     0.286000000     0.760000000    -5.041000000
