17
-92.20835
C     0.146000000     0.763000000    -2.268000000
H     0.179000000     1.703000000    -2.814000000
C     0.006000000     0.825000000    -0.853000000
H    -0.041000000     1.784000000    -0.344000000
C     0.100000000    -0.373000000    -0.085000000
C     0.000000000    -0.224000000     1.353000000
H    -0.994000000     0.084000000     1.684000000
H     0.248000000    -1.128000000     1.913000000
H     0.756000000     0.522000000     1.603000000
C     0.376000000    -1.591000000    -0.733000000
H     0.373000000    -2.459000000    -0.079000000
C     0.366000000    -1.642000000    -2.129000000
H     0.383000000    -2.617000000    -2.610000000
C     0.259000000    -0.498000000    -2.879000000
C     0.275000000    -0.595000000    -4.373000000
O     0.600000000    -1.642000000    -4.871000000
O    -0.007000000     0.302000000    -5.129000000
