17
-94.32649
C     0.590000000     1.289000000    -3.430000000
H     0.736000000     2.183000000    -4.030000000
C     0.158000000     1.497000000    -2.118000000
H    -0.102000000     2.539000000    -1.953000000
C     0.057000000     0.368000000    -1.270000000
C    -0.231000000     0.582000000     0.175000000
H    -0.995000000    -0.099000000     0.557000000
H     0.737000000     0.357000000     0.627000000
H    -0.610000000     1.598000000     0.305000000
C     0.406000000    -0.894000000    -1.776000000
H     0.536000000    -1.716000000    -1.077000000
C     0.724000000    -1.065000000    -3.122000000
H     0.849000000    -2.086000000    -3.472000000
C     0.855000000     0.018000000    -4.007000000
C     1.316000000    -0.183000000    -5.412000000
O     1.215000000    -1.315000000    -5.949000000
O     1.400000000     0.817000000    -6.107000000
