17
-91.37638
C    -0.156000000     0.292000000    -2.713000000
H    -0.448000000     1.140000000    -3.327000000
C    -0.387000000     0.398000000    -1.318000000
H    -0.703000000     1.361000000    -0.925000000
C    -0.059000000    -0.614000000    -0.522000000
C    -0.348000000    -0.594000000     0.969000000
H    -0.600000000    -1.630000000     1.206000000
H     0.526000000    -0.200000000     1.492000000
H    -1.258000000    -0.021000000     1.161000000
C     0.674000000    -1.680000000    -1.068000000
H     0.961000000    -2.570000000    -0.515000000
C     0.851000000    -1.786000000    -2.457000000
H     1.487000000    -2.573000000    -2.854000000
C     0.350000000    -0.858000000    -3.344000000
C     0.747000000    -0.866000000    -4.758000000
O     1.860000000    -1.364000000    -5.080000000
O     0.136000000    -0.138000000    -5.528000000
