17
-87.80760
C    -0.225000000     0.624000000    -2.780000000
H    -0.550000000     1.368000000    -3.502000000
C    -0.234000000     0.869000000    -1.373000000
H    -0.457000000     1.869000000    -1.011000000
C    -0.022000000    -0.108000000    -0.467000000
C    -0.166000000     0.058000000     1.051000000
H    -0.221000000     1.121000000     1.295000000
H    -0.919000000    -0.492000000     1.620000000
H     0.755000000    -0.313000000     1.507000000
C     0.137000000    -1.423000000    -0.875000000
H     0.394000000    -2.205000000    -0.166000000
C     0.132000000    -1.712000000    -2.233000000
H     0.328000000    -2.727000000    -2.569000000
C    -0.139000000    -0.712000000    -3.187000000
C    -0.127000000    -1.011000000    -4.661000000
O    -0.371000000    -2.111000000    -5.043000000
O     0.092000000    -0.187000000    -5.541000000
