17
-91.18660
C    -2.276000000    -2.353000000     0.253000000
H    -3.283000000    -2.555000000     0.609000000
C    -1.738000000    -1.081000000     0.425000000
H    -2.141000000    -0.274000000     1.032000000
C    -0.561000000    -0.835000000    -0.219000000
C     0.081000000     0.454000000    -0.042000000
H     0.847000000     0.625000000    -0.801000000
H    -0.731000000     1.144000000    -0.282000000
H     0.423000000     0.644000000     0.977000000
C     0.162000000    -1.756000000    -1.016000000
H     1.149000000    -1.507000000    -1.398000000
C    -0.353000000    -2.996000000    -1.216000000
H     0.082000000    -3.748000000    -1.869000000
C    -1.626000000    -3.292000000    -0.609000000
C    -2.281000000    -4.656000000    -0.822000000
O    -1.579000000    -5.523000000    -1.389000000
O    -3.245000000    -4.994000000    -0.168000000
