17
-99.11131
C    -0.441000000     2.047000000    -1.690000000
H    -0.625000000     3.114000000    -1.788000000
C    -0.194000000     1.526000000    -0.369000000
H    -0.155000000     2.235000000     0.454000000
C    -0.096000000     0.161000000    -0.137000000
C     0.190000000    -0.306000000     1.243000000
H    -0.584000000    -0.059000000     1.973000000
H     0.229000000    -1.394000000     1.323000000
H     1.189000000     0.044000000     1.511000000
C    -0.161000000    -0.695000000    -1.240000000
H     0.020000000    -1.766000000    -1.189000000
C    -0.411000000    -0.222000000    -2.488000000
H    -0.474000000    -0.966000000    -3.278000000
C    -0.604000000     1.189000000    -2.739000000
C    -0.811000000     1.664000000    -4.163000000
O    -0.867000000     0.784000000    -5.000000000
O    -0.975000000     2.834000000    -4.432000000
