17
-91.32345
C     0.215000000     2.311000000    -1.588000000
H    -0.220000000     3.304000000    -1.656000000
C    -0.017000000     1.625000000    -0.400000000
H    -0.652000000     2.040000000     0.378000000
C     0.384000000     0.315000000    -0.268000000
C    -0.214000000    -0.317000000     1.015000000
H    -1.267000000    -0.596000000     0.948000000
H     0.367000000    -1.172000000     1.366000000
H    -0.221000000     0.439000000     1.803000000
C     0.896000000    -0.366000000    -1.326000000
H     1.214000000    -1.391000000    -1.156000000
C     1.176000000     0.247000000    -2.546000000
H     1.754000000    -0.192000000    -3.355000000
C     0.914000000     1.621000000    -2.612000000
C     1.311000000     2.453000000    -3.847000000
O     2.188000000     2.070000000    -4.548000000
O     0.663000000     3.478000000    -4.096000000
