17
-88.78028
C     0.216000000     2.635000000    -1.689000000
H    -0.144000000     3.646000000    -1.863000000
C    -0.272000000     1.961000000    -0.574000000
H    -0.946000000     2.573000000     0.021000000
C     0.213000000     0.690000000    -0.177000000
C    -0.315000000     0.034000000     1.056000000
H     0.058000000     0.482000000     1.979000000
H    -1.380000000    -0.117000000     0.871000000
H     0.033000000    -0.995000000     1.168000000
C     1.074000000     0.086000000    -1.021000000
H     1.346000000    -0.955000000    -0.866000000
C     1.559000000     0.779000000    -2.201000000
H     2.273000000     0.279000000    -2.851000000
C     1.182000000     2.110000000    -2.491000000
C     1.686000000     2.834000000    -3.680000000
O     2.638000000     2.367000000    -4.184000000
O     1.242000000     3.945000000    -3.980000000
