17
-91.13702
C    -1.765000000    -2.519000000     0.410000000
H    -2.299000000    -3.136000000     1.129000000
C    -1.447000000    -1.177000000     0.646000000
H    -1.726000000    -0.668000000     1.565000000
C    -0.643000000    -0.496000000    -0.238000000
C    -0.133000000     0.827000000     0.126000000
H     0.735000000     0.805000000     0.788000000
H     0.142000000     1.501000000    -0.688000000
H    -0.917000000     1.321000000     0.704000000
C    -0.198000000    -1.107000000    -1.353000000
H     0.501000000    -0.584000000    -2.001000000
C    -0.587000000    -2.454000000    -1.678000000
H    -0.196000000    -2.872000000    -2.602000000
C    -1.352000000    -3.181000000    -0.753000000
C    -1.667000000    -4.673000000    -0.966000000
O    -1.123000000    -5.392000000    -1.794000000
O    -2.248000000    -5.268000000    -0.078000000
