17
-94.97082
C    -0.099000000     1.435000000    -2.146000000
H    -0.173000000     2.418000000    -2.606000000
C    -0.194000000     1.216000000    -0.765000000
H    -0.374000000     2.023000000    -0.060000000
C    -0.049000000    -0.071000000    -0.256000000
C     0.116000000    -0.191000000     1.231000000
H     0.548000000     0.735000000     1.615000000
H    -0.778000000    -0.439000000     1.807000000
H     0.751000000    -1.025000000     1.539000000
C     0.003000000    -1.153000000    -1.102000000
H     0.141000000    -2.162000000    -0.721000000
C     0.148000000    -0.973000000    -2.489000000
H     0.178000000    -1.796000000    -3.199000000
C     0.042000000     0.342000000    -3.000000000
C     0.105000000     0.495000000    -4.466000000
O     0.293000000    -0.471000000    -5.162000000
O    -0.305000000     1.523000000    -4.993000000
