17
-98.53670
C    -0.226000000     1.443000000    -1.906000000
H    -0.622000000     2.381000000    -2.285000000
C    -0.361000000     1.115000000    -0.571000000
H    -0.804000000     1.837000000     0.111000000
C     0.011000000    -0.094000000    -0.070000000
C    -0.136000000    -0.407000000     1.389000000
H     0.683000000    -1.085000000     1.639000000
H    -0.014000000     0.493000000     1.995000000
H    -1.102000000    -0.853000000     1.637000000
C     0.488000000    -1.061000000    -1.019000000
H     0.733000000    -2.078000000    -0.726000000
C     0.619000000    -0.761000000    -2.361000000
H     0.784000000    -1.536000000    -3.105000000
C     0.270000000     0.554000000    -2.787000000
C     0.336000000     0.810000000    -4.276000000
O     0.933000000     0.018000000    -5.018000000
O    -0.204000000     1.781000000    -4.756000000
