17
-94.64871
C    -0.342000000     1.666000000    -1.796000000
H    -0.743000000     2.628000000    -2.105000000
C    -0.332000000     1.312000000    -0.466000000
H    -0.638000000     2.003000000     0.316000000
C    -0.083000000    -0.025000000    -0.089000000
C    -0.095000000    -0.440000000     1.365000000
H     0.938000000    -0.576000000     1.691000000
H    -0.720000000     0.234000000     1.954000000
H    -0.634000000    -1.387000000     1.442000000
C     0.139000000    -0.930000000    -1.096000000
H     0.236000000    -1.970000000    -0.794000000
C     0.333000000    -0.497000000    -2.419000000
H     0.467000000    -1.288000000    -3.153000000
C     0.061000000     0.821000000    -2.767000000
C    -0.070000000     1.273000000    -4.210000000
O    -0.110000000     0.430000000    -5.150000000
O    -0.111000000     2.467000000    -4.567000000
