17
-98.38761
C     0.854000000     1.141000000    -2.437000000
H     1.602000000     1.738000000    -2.952000000
C     0.952000000     0.800000000    -1.083000000
H     1.799000000     1.167000000    -0.509000000
C    -0.036000000     0.045000000    -0.516000000
C     0.199000000    -0.308000000     0.956000000
H     0.038000000     0.612000000     1.523000000
H    -0.477000000    -1.047000000     1.391000000
H     1.172000000    -0.796000000     1.038000000
C    -1.101000000    -0.466000000    -1.285000000
H    -1.743000000    -1.225000000    -0.844000000
C    -1.171000000    -0.222000000    -2.670000000
H    -1.991000000    -0.651000000    -3.240000000
C    -0.191000000     0.622000000    -3.219000000
C    -0.286000000     1.085000000    -4.685000000
O    -1.221000000     0.698000000    -5.344000000
O     0.555000000     1.814000000    -5.142000000
