17
-96.09462
C     1.023000000     1.084000000    -2.212000000
H     1.893000000     1.324000000    -2.818000000
C     1.186000000     0.576000000    -0.879000000
H     2.168000000     0.310000000    -0.498000000
C     0.100000000     0.405000000    -0.074000000
C     0.236000000    -0.240000000     1.309000000
H     0.311000000     0.615000000     1.984000000
H    -0.715000000    -0.716000000     1.558000000
H     1.056000000    -0.955000000     1.407000000
C    -1.193000000     0.684000000    -0.583000000
H    -2.061000000     0.466000000     0.035000000
C    -1.380000000     1.212000000    -1.822000000
H    -2.331000000     1.551000000    -2.225000000
C    -0.229000000     1.496000000    -2.627000000
C    -0.306000000     1.998000000    -4.057000000
O    -1.474000000     2.004000000    -4.489000000
O     0.634000000     2.122000000    -4.780000000
