17
-91.23366
C     0.239000000     1.616000000    -1.747000000
H     1.017000000     2.028000000    -2.383000000
C     0.629000000     0.843000000    -0.652000000
H     1.683000000     0.668000000    -0.452000000
C    -0.339000000     0.343000000     0.192000000
C     0.102000000    -0.388000000     1.377000000
H     0.052000000     0.213000000     2.288000000
H    -0.466000000    -1.274000000     1.667000000
H     1.185000000    -0.524000000     1.394000000
C    -1.643000000     0.315000000    -0.145000000
H    -2.354000000    -0.190000000     0.503000000
C    -2.065000000     0.993000000    -1.265000000
H    -3.129000000     0.911000000    -1.473000000
C    -1.102000000     1.642000000    -2.111000000
C    -1.497000000     2.306000000    -3.445000000
O    -2.549000000     1.919000000    -3.984000000
O    -0.629000000     2.858000000    -4.131000000
