17
-89.85529
C     1.176000000     1.467000000    -1.837000000
H     2.033000000     1.711000000    -2.460000000
C     1.249000000     0.841000000    -0.569000000
H     2.226000000     0.633000000    -0.142000000
C     0.118000000     0.376000000     0.093000000
C     0.275000000    -0.277000000     1.569000000
H     1.231000000    -0.776000000     1.742000000
H     0.105000000     0.554000000     2.257000000
H    -0.588000000    -0.938000000     1.676000000
C    -1.123000000     0.477000000    -0.482000000
H    -2.000000000     0.045000000    -0.006000000
C    -1.209000000     1.155000000    -1.741000000
H    -2.241000000     1.151000000    -2.083000000
C    -0.054000000     1.629000000    -2.433000000
C    -0.034000000     2.389000000    -3.714000000
O    -1.095000000     2.671000000    -4.224000000
O     1.011000000     2.635000000    -4.297000000
