17
-94.20676
C    -0.273000000    -2.331000000     1.402000000
H    -0.170000000    -2.885000000     2.332000000
C     0.126000000    -0.989000000     1.257000000
H     0.335000000    -0.428000000     2.165000000
C    -0.042000000    -0.402000000     0.023000000
C    -0.010000000     1.117000000    -0.167000000
H    -0.866000000     1.407000000    -0.779000000
H    -0.047000000     1.645000000     0.788000000
H     0.887000000     1.504000000    -0.656000000
C    -0.629000000    -1.135000000    -0.975000000
H    -0.810000000    -0.647000000    -1.929000000
C    -0.975000000    -2.441000000    -0.835000000
H    -1.290000000    -2.960000000    -1.737000000
C    -0.802000000    -3.066000000     0.344000000
C    -1.113000000    -4.522000000     0.416000000
O    -1.466000000    -5.116000000    -0.610000000
O    -0.905000000    -5.091000000     1.467000000
