17
-98.07306
C     1.136000000     0.576000000    -2.282000000
H     2.008000000     0.721000000    -2.914000000
C     1.268000000     0.227000000    -0.920000000
H     2.243000000     0.160000000    -0.444000000
C     0.110000000     0.057000000    -0.121000000
C     0.210000000    -0.295000000     1.322000000
H    -0.071000000    -1.307000000     1.622000000
H     1.236000000    -0.181000000     1.679000000
H    -0.294000000     0.421000000     1.974000000
C    -1.142000000     0.396000000    -0.652000000
H    -1.991000000     0.265000000     0.014000000
C    -1.227000000     0.739000000    -1.958000000
H    -2.246000000     0.976000000    -2.252000000
C    -0.142000000     0.847000000    -2.804000000
C    -0.284000000     1.471000000    -4.169000000
O    -1.434000000     1.678000000    -4.574000000
O     0.706000000     1.435000000    -4.913000000
