17
-93.24913
C     0.709000000     1.119000000    -2.148000000
H     1.497000000     1.523000000    -2.778000000
C     1.014000000     0.487000000    -0.922000000
H     2.059000000     0.265000000    -0.720000000
C    -0.037000000     0.085000000    -0.113000000
C     0.229000000    -0.349000000     1.292000000
H    -0.604000000    -0.914000000     1.716000000
H     1.156000000    -0.922000000     1.354000000
H     0.383000000     0.540000000     1.907000000
C    -1.352000000     0.126000000    -0.608000000
H    -2.208000000    -0.230000000    -0.040000000
C    -1.584000000     0.683000000    -1.835000000
H    -2.564000000     0.608000000    -2.297000000
C    -0.584000000     1.343000000    -2.585000000
C    -0.866000000     2.170000000    -3.866000000
O    -1.960000000     2.092000000    -4.344000000
O     0.023000000     2.655000000    -4.484000000
