17
-86.26736
C     0.767000000     1.376000000    -2.109000000
H     1.552000000     1.844000000    -2.697000000
C     1.047000000     0.576000000    -1.032000000
H     2.097000000     0.460000000    -0.775000000
C     0.029000000     0.165000000    -0.219000000
C     0.325000000    -0.615000000     1.071000000
H     0.311000000    -1.693000000     0.894000000
H     1.323000000    -0.351000000     1.428000000
H    -0.361000000    -0.424000000     1.899000000
C    -1.313000000     0.418000000    -0.532000000
H    -2.087000000     0.028000000     0.124000000
C    -1.542000000     1.137000000    -1.694000000
H    -2.573000000     1.410000000    -1.903000000
C    -0.498000000     1.599000000    -2.558000000
C    -0.798000000     2.206000000    -3.840000000
O    -1.885000000     2.246000000    -4.247000000
O     0.123000000     2.527000000    -4.609000000
