17
-92.66289
C     0.567000000     0.587000000    -2.442000000
H     1.264000000     0.918000000    -3.208000000
C     0.942000000     0.284000000    -1.134000000
H     1.957000000     0.388000000    -0.758000000
C    -0.038000000    -0.019000000    -0.198000000
C     0.344000000    -0.309000000     1.267000000
H     0.860000000     0.508000000     1.775000000
H    -0.539000000    -0.493000000     1.882000000
H     0.910000000    -1.238000000     1.368000000
C    -1.366000000    -0.171000000    -0.601000000
H    -2.121000000    -0.528000000     0.095000000
C    -1.714000000     0.028000000    -1.920000000
H    -2.765000000    -0.075000000    -2.175000000
C    -0.764000000     0.400000000    -2.901000000
C    -1.253000000     0.641000000    -4.351000000
O    -2.460000000     0.828000000    -4.589000000
O    -0.527000000     1.015000000    -5.270000000
