17
-93.81309
C     0.755000000     0.586000000    -2.270000000
H     1.563000000     0.915000000    -2.919000000
C     1.018000000     0.406000000    -0.921000000
H     2.053000000     0.608000000    -0.658000000
C     0.069000000     0.065000000    -0.011000000
C     0.412000000    -0.037000000     1.474000000
H     1.491000000    -0.198000000     1.521000000
H     0.209000000     0.880000000     2.032000000
H    -0.062000000    -0.908000000     1.931000000
C    -1.177000000    -0.303000000    -0.427000000
H    -1.892000000    -0.758000000     0.254000000
C    -1.468000000    -0.249000000    -1.776000000
H    -2.466000000    -0.480000000    -2.139000000
C    -0.500000000     0.130000000    -2.718000000
C    -0.896000000     0.408000000    -4.135000000
O    -2.084000000     0.468000000    -4.422000000
O    -0.057000000     0.782000000    -4.909000000
