17
-83.92120
C     0.396000000     0.358000000    -4.096000000
H     1.135000000     0.652000000    -4.837000000
C     0.679000000     0.319000000    -2.676000000
H     1.588000000     0.706000000    -2.221000000
C    -0.272000000    -0.106000000    -1.828000000
C    -0.057000000    -0.069000000    -0.336000000
H    -0.640000000    -0.786000000     0.247000000
H     0.999000000    -0.227000000    -0.107000000
H    -0.210000000     0.962000000    -0.009000000
C    -1.469000000    -0.592000000    -2.305000000
H    -2.280000000    -0.869000000    -1.635000000
C    -1.764000000    -0.572000000    -3.704000000
H    -2.765000000    -0.850000000    -4.023000000
C    -0.779000000    -0.011000000    -4.561000000
C    -1.108000000     0.245000000    -5.997000000
O    -2.219000000     0.099000000    -6.464000000
O    -0.320000000     0.853000000    -6.642000000
