17
-95.15345
C     0.973000000    -0.049000000    -2.600000000
H     1.864000000     0.096000000    -3.206000000
C     1.113000000    -0.004000000    -1.206000000
H     2.137000000     0.101000000    -0.856000000
C     0.011000000    -0.230000000    -0.374000000
C     0.042000000    -0.368000000     1.195000000
H     0.950000000    -0.838000000     1.577000000
H     0.170000000     0.635000000     1.607000000
H    -0.854000000    -0.768000000     1.674000000
C    -1.262000000    -0.288000000    -0.954000000
H    -2.130000000    -0.281000000    -0.300000000
C    -1.417000000    -0.270000000    -2.327000000
H    -2.416000000    -0.359000000    -2.744000000
C    -0.296000000    -0.211000000    -3.192000000
C    -0.520000000    -0.246000000    -4.701000000
O    -1.658000000    -0.424000000    -5.160000000
O     0.381000000    -0.033000000    -5.445000000
