17
-91.43272
C     1.142000000     0.241000000    -2.527000000
H     2.062000000     0.330000000    -3.100000000
C     1.186000000     0.151000000    -1.147000000
H     2.158000000     0.070000000    -0.667000000
C     0.072000000    -0.121000000    -0.458000000
C     0.221000000    -0.606000000     0.917000000
H     0.241000000    -1.698000000     0.906000000
H     1.151000000    -0.242000000     1.359000000
H    -0.531000000    -0.231000000     1.614000000
C    -1.165000000    -0.208000000    -1.135000000
H    -2.093000000    -0.371000000    -0.592000000
C    -1.189000000     0.019000000    -2.500000000
H    -2.138000000    -0.067000000    -3.023000000
C    -0.030000000     0.134000000    -3.253000000
C     0.039000000     0.380000000    -4.761000000
O    -0.970000000     0.338000000    -5.376000000
O     1.102000000     0.663000000    -5.238000000
