17
-99.66977
C     1.369000000     0.384000000    -2.430000000
H     2.258000000     0.823000000    -2.875000000
C     1.320000000     0.136000000    -1.060000000
H     2.221000000     0.386000000    -0.506000000
C     0.177000000    -0.260000000    -0.505000000
C     0.149000000    -0.627000000     0.941000000
H    -0.834000000    -0.547000000     1.410000000
H     0.593000000    -1.618000000     1.060000000
H     0.771000000     0.036000000     1.545000000
C    -0.969000000    -0.410000000    -1.321000000
H    -1.884000000    -0.797000000    -0.879000000
C    -0.970000000    -0.158000000    -2.669000000
H    -1.818000000    -0.311000000    -3.331000000
C     0.209000000     0.345000000    -3.226000000
C     0.226000000     0.745000000    -4.710000000
O    -0.798000000     0.682000000    -5.354000000
O     1.272000000     1.233000000    -5.130000000
