17
-88.46580
C     1.616000000     0.838000000    -2.921000000
H     2.217000000     1.691000000    -3.225000000
C     1.590000000     0.639000000    -1.538000000
H     2.223000000     1.186000000    -0.844000000
C     0.712000000    -0.297000000    -0.938000000
C     0.697000000    -0.547000000     0.537000000
H     1.738000000    -0.534000000     0.865000000
H     0.190000000     0.314000000     0.977000000
H     0.200000000    -1.418000000     0.970000000
C    -0.121000000    -1.056000000    -1.731000000
H    -0.741000000    -1.841000000    -1.305000000
C    -0.144000000    -0.736000000    -3.101000000
H    -0.911000000    -1.177000000    -3.733000000
C     0.768000000     0.116000000    -3.772000000
C     0.930000000     0.199000000    -5.237000000
O     0.030000000     0.119000000    -5.973000000
O     2.066000000     0.395000000    -5.673000000
