17
-91.08256
C     1.051000000    -0.248000000    -2.906000000
H     2.001000000    -0.105000000    -3.414000000
C     1.092000000    -0.354000000    -1.517000000
H     2.038000000    -0.252000000    -0.992000000
C    -0.050000000    -0.595000000    -0.775000000
C     0.027000000    -0.353000000     0.747000000
H     0.335000000     0.668000000     0.980000000
H    -0.908000000    -0.665000000     1.217000000
H     0.815000000    -0.979000000     1.170000000
C    -1.180000000    -0.798000000    -1.438000000
H    -2.117000000    -0.897000000    -0.896000000
C    -1.287000000    -0.706000000    -2.818000000
H    -2.280000000    -0.753000000    -3.258000000
C    -0.175000000    -0.325000000    -3.539000000
C    -0.275000000     0.057000000    -5.004000000
O    -1.400000000     0.111000000    -5.463000000
O     0.663000000     0.449000000    -5.631000000
