17
-96.25005
C     0.389000000     0.954000000    -2.495000000
H     0.986000000     1.396000000    -3.289000000
C     0.817000000     0.536000000    -1.251000000
H     1.852000000     0.707000000    -0.969000000
C    -0.086000000    -0.041000000    -0.354000000
C     0.453000000    -0.503000000     1.044000000
H     0.424000000    -1.592000000     1.116000000
H     1.473000000    -0.180000000     1.265000000
H    -0.107000000    -0.151000000     1.913000000
C    -1.455000000    -0.167000000    -0.718000000
H    -2.166000000    -0.626000000    -0.036000000
C    -1.872000000     0.190000000    -1.975000000
H    -2.886000000    -0.012000000    -2.307000000
C    -0.935000000     0.736000000    -2.906000000
C    -1.335000000     1.222000000    -4.300000000
O    -2.544000000     1.404000000    -4.614000000
O    -0.470000000     1.678000000    -4.983000000
