17
-85.80379
C     0.147000000     0.817000000    -2.431000000
H     0.752000000     1.262000000    -3.216000000
C     0.716000000     0.687000000    -1.167000000
H     1.613000000     1.208000000    -0.842000000
C     0.012000000     0.018000000    -0.209000000
C     0.643000000    -0.209000000     1.153000000
H     0.005000000    -0.856000000     1.758000000
H     1.619000000    -0.642000000     0.925000000
H     0.629000000     0.696000000     1.764000000
C    -1.151000000    -0.593000000    -0.505000000
H    -1.558000000    -1.243000000     0.266000000
C    -1.774000000    -0.532000000    -1.748000000
H    -2.663000000    -1.111000000    -1.982000000
C    -1.075000000     0.204000000    -2.685000000
C    -1.659000000     0.267000000    -4.052000000
O    -2.615000000    -0.410000000    -4.418000000
O    -1.068000000     0.863000000    -4.883000000
