17
-76.95541
C     0.047000000     1.040000000    -2.294000000
H     0.695000000     1.374000000    -3.100000000
C     0.766000000     0.584000000    -1.180000000
H     1.840000000     0.751000000    -1.206000000
C     0.007000000    -0.038000000    -0.138000000
C     0.679000000    -0.620000000     1.160000000
H     1.237000000     0.163000000     1.677000000
H    -0.034000000    -0.996000000     1.897000000
H     1.410000000    -1.425000000     1.057000000
C    -1.346000000     0.009000000    -0.162000000
H    -1.900000000    -0.351000000     0.701000000
C    -2.028000000     0.609000000    -1.199000000
H    -3.105000000     0.609000000    -1.347000000
C    -1.339000000     1.002000000    -2.406000000
C    -1.963000000     1.216000000    -3.695000000
O    -3.153000000     1.259000000    -3.866000000
O    -1.315000000     1.477000000    -4.654000000
