17
-88.35919
C     0.540000000     1.220000000    -1.995000000
H     1.257000000     1.777000000    -2.593000000
C     0.903000000     0.675000000    -0.773000000
H     1.914000000     0.689000000    -0.373000000
C    -0.024000000     0.001000000     0.014000000
C     0.322000000    -0.591000000     1.376000000
H    -0.380000000    -1.320000000     1.787000000
H     1.191000000    -1.234000000     1.221000000
H     0.675000000     0.195000000     2.048000000
C    -1.318000000    -0.163000000    -0.480000000
H    -2.110000000    -0.427000000     0.216000000
C    -1.665000000     0.317000000    -1.739000000
H    -2.696000000     0.306000000    -2.085000000
C    -0.791000000     1.071000000    -2.489000000
C    -1.180000000     1.517000000    -3.812000000
O    -2.318000000     1.511000000    -4.205000000
O    -0.351000000     1.808000000    -4.675000000
