17
-93.66947
C     0.633000000     1.380000000    -2.038000000
H     1.384000000     2.010000000    -2.508000000
C     0.966000000     0.574000000    -0.913000000
H     2.000000000     0.585000000    -0.580000000
C    -0.044000000    -0.124000000    -0.246000000
C     0.319000000    -0.913000000     0.969000000
H     0.470000000    -0.327000000     1.878000000
H    -0.503000000    -1.578000000     1.242000000
H     1.167000000    -1.587000000     0.827000000
C    -1.333000000    -0.087000000    -0.650000000
H    -1.995000000    -0.657000000    -0.002000000
C    -1.701000000     0.816000000    -1.678000000
H    -2.755000000     1.022000000    -1.841000000
C    -0.713000000     1.449000000    -2.440000000
C    -1.014000000     2.350000000    -3.540000000
O    -1.983000000     2.260000000    -4.304000000
O    -0.331000000     3.420000000    -3.623000000
