17
-95.45034
C    -0.273000000     1.129000000    -2.413000000
H     0.458000000     1.739000000    -2.936000000
C     0.310000000     0.434000000    -1.314000000
H     1.355000000     0.391000000    -1.021000000
C    -0.521000000    -0.161000000    -0.402000000
C     0.037000000    -0.809000000     0.858000000
H    -0.434000000    -0.320000000     1.713000000
H    -0.153000000    -1.883000000     0.911000000
H     1.128000000    -0.772000000     0.847000000
C    -1.925000000    -0.106000000    -0.653000000
H    -2.539000000    -0.736000000    -0.015000000
C    -2.452000000     0.488000000    -1.782000000
H    -3.535000000     0.441000000    -1.874000000
C    -1.598000000     1.114000000    -2.676000000
C    -2.040000000     1.959000000    -3.872000000
O    -3.244000000     2.263000000    -3.999000000
O    -1.233000000     2.398000000    -4.687000000
