17
-89.35134
C     0.400000000     0.896000000    -2.488000000
H     1.092000000     1.445000000    -3.121000000
C     0.752000000     0.335000000    -1.296000000
H     1.733000000     0.523000000    -0.868000000
C    -0.250000000    -0.380000000    -0.575000000
C     0.106000000    -0.956000000     0.802000000
H    -0.760000000    -1.231000000     1.408000000
H     0.619000000    -1.916000000     0.716000000
H     0.689000000    -0.291000000     1.443000000
C    -1.533000000    -0.411000000    -1.115000000
H    -2.406000000    -0.837000000    -0.627000000
C    -1.864000000     0.176000000    -2.347000000
H    -2.861000000     0.102000000    -2.774000000
C    -0.782000000     0.746000000    -3.081000000
C    -1.090000000     1.515000000    -4.375000000
O    -2.249000000     1.738000000    -4.674000000
O    -0.246000000     1.984000000    -5.097000000
