17
-97.79627
C     0.260000000     1.438000000    -1.976000000
H     0.913000000     1.966000000    -2.666000000
C     0.783000000     0.903000000    -0.801000000
H     1.808000000     1.191000000    -0.583000000
C     0.008000000    -0.062000000    -0.080000000
C     0.603000000    -0.656000000     1.166000000
H     0.267000000     0.006000000     1.966000000
H     0.296000000    -1.679000000     1.395000000
H     1.693000000    -0.719000000     1.171000000
C    -1.349000000    -0.262000000    -0.400000000
H    -2.020000000    -0.820000000     0.248000000
C    -1.899000000     0.403000000    -1.532000000
H    -2.914000000     0.204000000    -1.866000000
C    -1.042000000     1.144000000    -2.329000000
C    -1.636000000     1.893000000    -3.591000000
O    -2.856000000     1.912000000    -3.710000000
O    -0.914000000     2.426000000    -4.376000000
