17
-84.99318
C    -1.441000000    -2.401000000    -0.210000000
H    -2.285000000    -2.874000000     0.286000000
C    -1.362000000    -1.031000000    -0.050000000
H    -2.048000000    -0.438000000     0.549000000
C    -0.389000000    -0.265000000    -0.607000000
C    -0.295000000     1.208000000    -0.350000000
H     0.528000000     1.436000000     0.331000000
H    -0.064000000     1.698000000    -1.298000000
H    -1.253000000     1.573000000     0.026000000
C     0.655000000    -0.898000000    -1.181000000
H     1.609000000    -0.446000000    -1.439000000
C     0.650000000    -2.307000000    -1.301000000
H     1.515000000    -2.806000000    -1.730000000
C    -0.385000000    -3.116000000    -0.737000000
C    -0.394000000    -4.654000000    -0.751000000
O     0.523000000    -5.328000000    -1.143000000
O    -1.455000000    -5.207000000    -0.617000000
