17
-98.83372
C    -0.020000000     2.582000000    -0.910000000
H     0.483000000     3.537000000    -1.040000000
C     0.528000000     1.524000000    -0.127000000
H     1.527000000     1.609000000     0.292000000
C    -0.140000000     0.312000000     0.081000000
C     0.427000000    -0.664000000     1.051000000
H     0.818000000    -1.552000000     0.549000000
H     1.149000000    -0.215000000     1.736000000
H    -0.478000000    -0.996000000     1.564000000
C    -1.404000000     0.088000000    -0.516000000
H    -1.941000000    -0.856000000    -0.469000000
C    -1.851000000     1.082000000    -1.329000000
H    -2.828000000     0.948000000    -1.786000000
C    -1.261000000     2.356000000    -1.539000000
C    -1.930000000     3.501000000    -2.305000000
O    -3.051000000     3.406000000    -2.780000000
O    -1.174000000     4.443000000    -2.498000000
