17
-91.05819
C     0.333000000     2.327000000    -1.676000000
H     1.068000000     2.859000000    -2.275000000
C     0.854000000     1.294000000    -0.897000000
H     1.889000000     0.965000000    -0.938000000
C    -0.075000000     0.580000000    -0.100000000
C     0.466000000    -0.508000000     0.800000000
H    -0.359000000    -0.808000000     1.449000000
H     0.845000000    -1.364000000     0.237000000
H     1.184000000     0.024000000     1.427000000
C    -1.401000000     0.806000000    -0.133000000
H    -2.081000000     0.175000000     0.433000000
C    -1.843000000     1.864000000    -0.963000000
H    -2.920000000     1.995000000    -0.907000000
C    -0.988000000     2.620000000    -1.753000000
C    -1.570000000     3.679000000    -2.667000000
O    -2.767000000     3.715000000    -2.703000000
O    -0.910000000     4.300000000    -3.454000000
