17
-101.47398
C    -1.430000000     1.006000000    -1.811000000
H    -1.235000000     1.349000000    -2.824000000
C    -0.397000000     0.407000000    -1.118000000
H     0.547000000     0.277000000    -1.640000000
C    -0.478000000     0.061000000     0.193000000
C     0.717000000    -0.405000000     0.984000000
H     0.398000000    -0.435000000     2.028000000
H     0.975000000    -1.447000000     0.784000000
H     1.605000000     0.229000000     0.960000000
C    -1.685000000     0.280000000     0.867000000
H    -1.877000000     0.008000000     1.902000000
C    -2.804000000     0.868000000     0.219000000
H    -3.732000000     1.125000000     0.723000000
C    -2.646000000     1.214000000    -1.129000000
C    -3.822000000     1.936000000    -1.842000000
O    -4.885000000     2.060000000    -1.250000000
O    -3.662000000     2.270000000    -3.024000000
