17
-99.24402
C    -0.725000000     2.673000000    -1.154000000
H    -0.313000000     3.537000000    -1.669000000
C     0.161000000     1.651000000    -0.827000000
H     1.187000000     1.688000000    -1.186000000
C    -0.250000000     0.555000000    -0.143000000
C     0.711000000    -0.520000000     0.320000000
H     1.755000000    -0.228000000     0.448000000
H     0.542000000    -0.762000000     1.372000000
H     0.700000000    -1.419000000    -0.299000000
C    -1.626000000     0.433000000     0.147000000
H    -1.966000000    -0.416000000     0.735000000
C    -2.549000000     1.441000000    -0.332000000
H    -3.595000000     1.290000000    -0.075000000
C    -2.079000000     2.598000000    -0.917000000
C    -2.965000000     3.743000000    -1.359000000
O    -4.181000000     3.556000000    -1.335000000
O    -2.424000000     4.698000000    -1.910000000
