17
-92.11679
C    -1.440000000    -3.628000000    -0.228000000
H    -2.212000000    -4.140000000     0.339000000
C    -1.254000000    -2.244000000     0.072000000
H    -1.833000000    -1.811000000     0.884000000
C    -0.211000000    -1.492000000    -0.426000000
C     0.035000000    -0.049000000     0.002000000
H     0.666000000     0.377000000    -0.782000000
H    -0.838000000     0.602000000    -0.082000000
H     0.449000000     0.097000000     1.002000000
C     0.737000000    -2.129000000    -1.202000000
H     1.644000000    -1.627000000    -1.529000000
C     0.593000000    -3.438000000    -1.578000000
H     1.378000000    -3.923000000    -2.153000000
C    -0.520000000    -4.217000000    -1.139000000
C    -0.669000000    -5.641000000    -1.552000000
O     0.154000000    -6.113000000    -2.270000000
O    -1.552000000    -6.274000000    -1.045000000
