17
-96.35976
C    -1.055000000     1.832000000    -1.407000000
H    -0.880000000     2.360000000    -2.340000000
C    -0.087000000     0.965000000    -0.946000000
H     0.862000000     0.795000000    -1.448000000
C    -0.328000000     0.301000000     0.250000000
C     0.768000000    -0.483000000     0.947000000
H     0.669000000    -0.415000000     2.032000000
H     0.644000000    -1.546000000     0.730000000
H     1.806000000    -0.197000000     0.763000000
C    -1.561000000     0.372000000     0.865000000
H    -1.776000000    -0.227000000     1.747000000
C    -2.587000000     1.084000000     0.292000000
H    -3.579000000     0.929000000     0.708000000
C    -2.368000000     1.836000000    -0.855000000
C    -3.549000000     2.633000000    -1.442000000
O    -4.636000000     2.620000000    -0.902000000
O    -3.456000000     3.237000000    -2.500000000
