17
-92.69139
C    -1.101000000    -2.641000000    -0.395000000
H    -2.054000000    -3.164000000    -0.393000000
C    -0.972000000    -1.246000000    -0.212000000
H    -1.874000000    -0.644000000    -0.147000000
C     0.275000000    -0.625000000    -0.051000000
C     0.254000000     0.828000000     0.134000000
H    -0.773000000     1.183000000     0.246000000
H     0.603000000     0.993000000     1.156000000
H     0.920000000     1.279000000    -0.604000000
C     1.354000000    -1.351000000    -0.305000000
H     2.312000000    -0.850000000    -0.421000000
C     1.338000000    -2.749000000    -0.510000000
H     2.260000000    -3.325000000    -0.514000000
C     0.095000000    -3.345000000    -0.491000000
C    -0.011000000    -4.859000000    -0.549000000
O     0.997000000    -5.511000000    -0.841000000
O    -1.105000000    -5.358000000    -0.434000000
