17
-91.27334
C    -0.868000000     0.430000000    -1.909000000
H    -0.673000000     0.573000000    -2.969000000
C     0.229000000     0.044000000    -1.184000000
H     1.170000000    -0.124000000    -1.701000000
C     0.079000000    -0.164000000     0.174000000
C     1.248000000    -0.493000000     1.084000000
H     0.896000000    -1.103000000     1.918000000
H     1.950000000    -1.070000000     0.478000000
H     1.674000000     0.436000000     1.468000000
C    -1.197000000    -0.036000000     0.801000000
H    -1.397000000    -0.272000000     1.843000000
C    -2.241000000     0.317000000     0.063000000
H    -3.193000000     0.399000000     0.582000000
C    -2.100000000     0.478000000    -1.331000000
C    -3.297000000     0.855000000    -2.149000000
O    -4.393000000     0.842000000    -1.681000000
O    -3.141000000     1.210000000    -3.301000000
