17
-97.99833
C    -1.193000000     0.486000000    -1.782000000
H    -1.361000000     0.446000000    -2.855000000
C    -0.031000000     0.056000000    -1.242000000
H     0.688000000    -0.500000000    -1.839000000
C     0.196000000     0.198000000     0.138000000
C     1.381000000    -0.466000000     0.777000000
H     1.042000000    -1.448000000     1.114000000
H     2.134000000    -0.665000000     0.011000000
H     1.873000000     0.076000000     1.587000000
C    -0.675000000     0.859000000     0.944000000
H    -0.541000000     0.902000000     2.022000000
C    -1.876000000     1.370000000     0.402000000
H    -2.543000000     1.878000000     1.094000000
C    -2.144000000     1.130000000    -0.926000000
C    -3.313000000     1.810000000    -1.545000000
O    -3.937000000     2.706000000    -0.928000000
O    -3.646000000     1.520000000    -2.669000000
