17
-101.19414
C    -1.380000000     0.042000000    -2.165000000
H    -1.426000000     0.046000000    -3.251000000
C    -0.254000000    -0.528000000    -1.502000000
H     0.548000000    -0.969000000    -2.088000000
C    -0.080000000    -0.310000000    -0.127000000
C     1.177000000    -0.839000000     0.495000000
H     1.816000000    -0.013000000     0.814000000
H     1.004000000    -1.494000000     1.352000000
H     1.770000000    -1.429000000    -0.206000000
C    -0.977000000     0.521000000     0.571000000
H    -0.744000000     0.762000000     1.605000000
C    -2.109000000     1.047000000    -0.078000000
H    -2.851000000     1.598000000     0.495000000
C    -2.331000000     0.770000000    -1.418000000
C    -3.574000000     1.241000000    -2.133000000
O    -4.306000000     2.029000000    -1.516000000
O    -3.932000000     0.847000000    -3.238000000
