17
-78.83662
C    -0.594000000     0.668000000    -2.348000000
H    -0.348000000     0.778000000    -3.401000000
C     0.390000000     0.207000000    -1.460000000
H     1.358000000    -0.004000000    -1.906000000
C     0.078000000    -0.078000000    -0.126000000
C     1.099000000    -0.470000000     0.905000000
H     0.629000000    -0.278000000     1.872000000
H     1.507000000    -1.464000000     0.707000000
H     1.885000000     0.276000000     0.774000000
C    -1.218000000     0.131000000     0.390000000
H    -1.491000000    -0.030000000     1.430000000
C    -2.149000000     0.672000000    -0.473000000
H    -3.127000000     0.727000000    -0.001000000
C    -1.859000000     0.939000000    -1.820000000
C    -2.912000000     1.482000000    -2.676000000
O    -3.824000000     2.071000000    -2.177000000
O    -2.922000000     1.389000000    -3.831000000
