17
-95.44627
C    -0.754000000     1.582000000    -2.443000000
H    -0.412000000     1.705000000    -3.467000000
C    -0.040000000     0.699000000    -1.632000000
H     0.621000000    -0.050000000    -2.061000000
C    -0.209000000     0.665000000    -0.219000000
C     0.400000000    -0.370000000     0.658000000
H    -0.047000000    -0.312000000     1.653000000
H     0.219000000    -1.386000000     0.304000000
H     1.467000000    -0.152000000     0.733000000
C    -1.139000000     1.559000000     0.335000000
H    -1.226000000     1.507000000     1.417000000
C    -1.705000000     2.517000000    -0.471000000
H    -2.248000000     3.341000000    -0.015000000
C    -1.597000000     2.535000000    -1.883000000
C    -2.129000000     3.665000000    -2.656000000
O    -2.639000000     4.698000000    -2.143000000
O    -2.157000000     3.500000000    -3.855000000
