17
-84.91970
C    -0.811000000     1.409000000    -1.821000000
H    -0.845000000     1.717000000    -2.863000000
C     0.097000000     0.359000000    -1.406000000
H     0.689000000    -0.205000000    -2.122000000
C     0.240000000     0.123000000    -0.080000000
C     1.250000000    -0.936000000     0.451000000
H     2.215000000    -0.810000000    -0.046000000
H     1.413000000    -0.575000000     1.468000000
H     0.888000000    -1.965000000     0.489000000
C    -0.695000000     0.665000000     0.794000000
H    -0.585000000     0.550000000     1.869000000
C    -1.560000000     1.643000000     0.394000000
H    -2.280000000     2.015000000     1.118000000
C    -1.612000000     2.082000000    -0.902000000
C    -2.648000000     3.046000000    -1.336000000
O    -3.467000000     3.482000000    -0.531000000
O    -2.831000000     3.318000000    -2.473000000
