17
-80.39824
C    -0.939000000     2.449000000    -1.820000000
H    -0.708000000     3.070000000    -2.681000000
C    -0.049000000     1.483000000    -1.410000000
H     0.875000000     1.336000000    -1.964000000
C    -0.236000000     0.862000000    -0.153000000
C     0.717000000    -0.157000000     0.350000000
H     1.670000000     0.194000000     0.751000000
H     0.307000000    -0.523000000     1.294000000
H     0.785000000    -0.963000000    -0.384000000
C    -1.369000000     1.131000000     0.644000000
H    -1.435000000     0.798000000     1.677000000
C    -2.197000000     2.175000000     0.220000000
H    -3.007000000     2.411000000     0.905000000
C    -1.981000000     2.821000000    -1.000000000
C    -2.742000000     4.070000000    -1.327000000
O    -3.563000000     4.592000000    -0.657000000
O    -2.759000000     4.433000000    -2.485000000
