17
-93.53011
C    -0.934000000     2.101000000    -1.926000000
H    -0.814000000     2.587000000    -2.891000000
C    -0.436000000     0.842000000    -1.540000000
H     0.154000000     0.305000000    -2.279000000
C    -0.655000000     0.355000000    -0.230000000
C    -0.063000000    -0.969000000     0.222000000
H    -0.755000000    -1.698000000    -0.206000000
H     0.936000000    -1.261000000    -0.108000000
H    -0.011000000    -0.946000000     1.312000000
C    -1.563000000     0.989000000     0.611000000
H    -1.814000000     0.557000000     1.576000000
C    -2.093000000     2.226000000     0.136000000
H    -2.720000000     2.748000000     0.854000000
C    -1.800000000     2.835000000    -1.045000000
C    -2.561000000     4.042000000    -1.510000000
O    -3.432000000     4.592000000    -0.836000000
O    -2.177000000     4.626000000    -2.510000000
