17
-93.71643
C    -0.743000000     1.649000000    -1.702000000
H    -0.510000000     2.116000000    -2.656000000
C     0.127000000     0.760000000    -1.181000000
H     1.001000000     0.347000000    -1.679000000
C    -0.130000000     0.154000000     0.091000000
C     0.890000000    -0.766000000     0.650000000
H     0.666000000    -1.799000000     0.374000000
H     1.901000000    -0.571000000     0.285000000
H     1.014000000    -0.606000000     1.723000000
C    -1.270000000     0.433000000     0.822000000
H    -1.506000000    -0.183000000     1.686000000
C    -2.174000000     1.296000000     0.249000000
H    -3.139000000     1.513000000     0.699000000
C    -1.920000000     1.972000000    -0.983000000
C    -2.915000000     2.999000000    -1.556000000
O    -4.029000000     3.040000000    -1.111000000
O    -2.605000000     3.859000000    -2.366000000
