17
-90.91689
C    -0.794000000     1.761000000    -1.844000000
H    -0.620000000     2.178000000    -2.833000000
C     0.091000000     0.735000000    -1.404000000
H     0.798000000     0.272000000    -2.088000000
C     0.004000000     0.272000000    -0.081000000
C     0.922000000    -0.765000000     0.484000000
H     1.615000000    -1.091000000    -0.294000000
H     1.469000000    -0.396000000     1.354000000
H     0.339000000    -1.632000000     0.801000000
C    -0.961000000     0.794000000     0.717000000
H    -1.016000000     0.620000000     1.788000000
C    -1.811000000     1.848000000     0.260000000
H    -2.549000000     2.256000000     0.947000000
C    -1.761000000     2.340000000    -0.990000000
C    -2.761000000     3.346000000    -1.509000000
O    -3.686000000     3.691000000    -0.875000000
O    -2.752000000     3.600000000    -2.714000000
