17
-97.57111
C    -0.936000000     1.791000000    -1.174000000
H    -0.767000000     2.579000000    -1.903000000
C     0.134000000     1.007000000    -0.817000000
H     1.045000000     1.030000000    -1.409000000
C    -0.033000000    -0.008000000     0.112000000
C     1.066000000    -0.904000000     0.634000000
H     1.319000000    -1.800000000     0.064000000
H     2.005000000    -0.348000000     0.643000000
H     0.810000000    -1.141000000     1.669000000
C    -1.298000000    -0.251000000     0.664000000
H    -1.446000000    -0.997000000     1.440000000
C    -2.364000000     0.614000000     0.351000000
H    -3.311000000     0.509000000     0.874000000
C    -2.153000000     1.692000000    -0.552000000
C    -3.397000000     2.436000000    -1.022000000
O    -4.485000000     2.379000000    -0.414000000
O    -3.308000000     3.257000000    -1.964000000
