17
-88.39132
C    -1.049000000     0.678000000    -2.264000000
H    -1.065000000     0.810000000    -3.343000000
C     0.119000000     0.303000000    -1.575000000
H     1.099000000     0.207000000    -2.035000000
C     0.075000000     0.161000000    -0.162000000
C     1.333000000    -0.208000000     0.584000000
H     1.363000000     0.521000000     1.396000000
H     1.234000000    -1.119000000     1.178000000
H     2.165000000    -0.102000000    -0.114000000
C    -1.074000000     0.408000000     0.497000000
H    -1.128000000     0.359000000     1.581000000
C    -2.225000000     0.753000000    -0.136000000
H    -3.110000000     0.914000000     0.474000000
C    -2.230000000     0.825000000    -1.496000000
C    -3.460000000     1.312000000    -2.232000000
O    -4.443000000     1.743000000    -1.683000000
O    -3.493000000     1.237000000    -3.428000000
