17
-85.10142
C    -1.952000000     1.180000000    -2.594000000
H    -1.752000000     1.438000000    -3.630000000
C    -0.880000000     0.950000000    -1.688000000
H     0.140000000     0.928000000    -2.063000000
C    -1.044000000     0.821000000    -0.341000000
C     0.176000000     0.363000000     0.528000000
H     0.477000000    -0.577000000     0.061000000
H     0.963000000     1.120000000     0.539000000
H    -0.109000000     0.295000000     1.580000000
C    -2.286000000     1.062000000     0.167000000
H    -2.419000000     1.061000000     1.246000000
C    -3.360000000     1.372000000    -0.649000000
H    -4.319000000     1.593000000    -0.188000000
C    -3.149000000     1.570000000    -2.012000000
C    -4.390000000     1.898000000    -2.918000000
O    -5.526000000     1.922000000    -2.492000000
O    -4.108000000     2.476000000    -3.916000000
