17
-92.35938
C    -1.030000000     1.359000000    -1.756000000
H    -1.010000000     1.656000000    -2.801000000
C    -0.043000000     0.475000000    -1.139000000
H     0.779000000     0.046000000    -1.707000000
C    -0.061000000     0.299000000     0.197000000
C     0.974000000    -0.558000000     0.867000000
H     1.353000000    -0.204000000     1.828000000
H     0.732000000    -1.616000000     0.993000000
H     1.911000000    -0.479000000     0.312000000
C    -1.142000000     0.763000000     0.951000000
H    -1.129000000     0.416000000     1.981000000
C    -2.108000000     1.505000000     0.342000000
H    -2.922000000     1.700000000     1.036000000
C    -2.021000000     1.918000000    -0.966000000
C    -3.183000000     2.795000000    -1.462000000
O    -4.297000000     2.705000000    -0.915000000
O    -3.065000000     3.434000000    -2.497000000
