17
-96.56746
C    -3.032000000     1.372000000    -2.299000000
H    -2.882000000     2.015000000    -3.163000000
C    -1.934000000     0.714000000    -1.759000000
H    -0.906000000     0.787000000    -2.105000000
C    -2.134000000    -0.072000000    -0.587000000
C    -0.996000000    -0.799000000     0.114000000
H    -0.229000000    -1.061000000    -0.617000000
H    -0.590000000    -0.173000000     0.911000000
H    -1.422000000    -1.684000000     0.592000000
C    -3.405000000    -0.269000000    -0.064000000
H    -3.454000000    -0.977000000     0.760000000
C    -4.500000000     0.286000000    -0.718000000
H    -5.457000000     0.203000000    -0.209000000
C    -4.361000000     1.039000000    -1.857000000
C    -5.541000000     1.779000000    -2.461000000
O    -6.671000000     1.334000000    -2.492000000
O    -5.236000000     2.824000000    -2.983000000
