17
-88.94580
C    -1.657000000     0.894000000    -2.273000000
H    -1.679000000     0.717000000    -3.346000000
C    -0.504000000     0.434000000    -1.672000000
H     0.277000000    -0.084000000    -2.223000000
C    -0.337000000     0.635000000    -0.303000000
C     0.646000000    -0.159000000     0.493000000
H     1.677000000     0.096000000     0.239000000
H     0.562000000     0.202000000     1.521000000
H     0.515000000    -1.229000000     0.321000000
C    -1.392000000     1.333000000     0.400000000
H    -1.239000000     1.504000000     1.462000000
C    -2.522000000     1.706000000    -0.187000000
H    -3.330000000     2.122000000     0.409000000
C    -2.729000000     1.480000000    -1.558000000
C    -4.013000000     1.850000000    -2.228000000
O    -4.836000000     2.425000000    -1.568000000
O    -4.354000000     1.324000000    -3.273000000
