17
-93.31682
C    -2.395000000    -0.521000000    -1.722000000
H    -2.800000000    -0.502000000    -2.730000000
C    -1.112000000    -0.148000000    -1.470000000
H    -0.441000000     0.133000000    -2.277000000
C    -0.628000000    -0.091000000    -0.159000000
C     0.814000000     0.210000000     0.114000000
H     1.047000000    -0.613000000     0.793000000
H     1.558000000     0.110000000    -0.679000000
H     0.812000000     1.132000000     0.699000000
C    -1.536000000    -0.269000000     0.913000000
H    -1.329000000    -0.202000000     1.978000000
C    -2.845000000    -0.520000000     0.692000000
H    -3.546000000    -0.621000000     1.516000000
C    -3.329000000    -0.680000000    -0.671000000
C    -4.818000000    -0.953000000    -0.876000000
O    -5.607000000    -1.022000000     0.070000000
O    -5.219000000    -0.983000000    -2.018000000
