17
-89.28804
C    -1.986000000     0.525000000    -2.093000000
H    -2.204000000     0.436000000    -3.154000000
C    -0.728000000     0.093000000    -1.657000000
H    -0.028000000    -0.329000000    -2.373000000
C    -0.459000000     0.232000000    -0.266000000
C     0.856000000    -0.234000000     0.376000000
H     0.947000000    -1.300000000     0.597000000
H     1.585000000    -0.008000000    -0.404000000
H     1.091000000     0.396000000     1.237000000
C    -1.410000000     0.649000000     0.592000000
H    -1.136000000     0.675000000     1.643000000
C    -2.636000000     1.038000000     0.174000000
H    -3.345000000     1.384000000     0.921000000
C    -3.001000000     0.911000000    -1.194000000
C    -4.397000000     1.336000000    -1.667000000
O    -5.230000000     1.709000000    -0.837000000
O    -4.803000000     1.053000000    -2.752000000
