17
-90.45594
C    -1.008000000     1.313000000    -2.224000000
H    -1.044000000     1.612000000    -3.268000000
C    -0.092000000     0.432000000    -1.651000000
H     0.651000000    -0.025000000    -2.300000000
C    -0.132000000     0.158000000    -0.271000000
C     1.003000000    -0.596000000     0.363000000
H     1.307000000    -0.145000000     1.310000000
H     0.572000000    -1.554000000     0.660000000
H     1.832000000    -0.818000000    -0.312000000
C    -1.133000000     0.719000000     0.527000000
H    -1.015000000     0.531000000     1.592000000
C    -2.193000000     1.434000000    -0.087000000
H    -2.867000000     1.971000000     0.576000000
C    -2.116000000     1.760000000    -1.467000000
C    -3.186000000     2.617000000    -2.123000000
O    -4.180000000     2.878000000    -1.474000000
O    -3.178000000     2.872000000    -3.271000000
