17
-93.13774
C    -2.153000000     1.565000000    -0.759000000
H    -2.596000000     2.094000000    -1.600000000
C    -0.906000000     0.882000000    -0.977000000
H    -0.486000000     0.930000000    -1.979000000
C    -0.214000000     0.281000000     0.105000000
C     1.122000000    -0.324000000     0.040000000
H     1.714000000     0.065000000     0.871000000
H     1.139000000    -1.412000000     0.133000000
H     1.626000000    -0.212000000    -0.922000000
C    -0.785000000     0.318000000     1.382000000
H    -0.403000000    -0.100000000     2.310000000
C    -2.032000000     0.932000000     1.526000000
H    -2.414000000     0.900000000     2.543000000
C    -2.729000000     1.538000000     0.511000000
C    -3.928000000     2.358000000     0.957000000
O    -4.440000000     2.096000000     2.010000000
O    -4.426000000     3.195000000     0.242000000
