17
-96.90641
C    -1.557000000     1.485000000    -2.244000000
H    -1.654000000     1.655000000    -3.313000000
C    -0.683000000     0.573000000    -1.693000000
H     0.030000000     0.027000000    -2.305000000
C    -0.575000000     0.496000000    -0.326000000
C     0.346000000    -0.598000000     0.257000000
H    -0.336000000    -1.429000000     0.451000000
H     1.139000000    -0.773000000    -0.473000000
H     0.761000000    -0.274000000     1.213000000
C    -1.344000000     1.296000000     0.539000000
H    -1.244000000     1.191000000     1.616000000
C    -2.199000000     2.183000000    -0.086000000
H    -2.760000000     2.765000000     0.640000000
C    -2.344000000     2.324000000    -1.444000000
C    -3.382000000     3.265000000    -2.099000000
O    -3.939000000     4.072000000    -1.337000000
O    -3.771000000     3.161000000    -3.240000000
