17
-100.74611
C     0.491000000    -3.209000000    -0.199000000
H     0.044000000    -4.179000000    -0.402000000
C    -0.261000000    -2.114000000    -0.561000000
H    -1.172000000    -2.264000000    -1.135000000
C     0.208000000    -0.823000000    -0.255000000
C    -0.594000000     0.413000000    -0.665000000
H    -0.855000000     0.991000000     0.224000000
H     0.099000000     1.034000000    -1.236000000
H    -1.509000000     0.193000000    -1.218000000
C     1.418000000    -0.742000000     0.383000000
H     1.781000000     0.233000000     0.698000000
C     2.173000000    -1.849000000     0.784000000
H     3.058000000    -1.651000000     1.383000000
C     1.735000000    -3.140000000     0.469000000
C     2.401000000    -4.417000000     0.905000000
O     3.565000000    -4.301000000     1.222000000
O     1.798000000    -5.480000000     0.946000000
