17
-93.87656
C    -1.508000000    -2.299000000     0.302000000
H    -2.185000000    -2.960000000     0.837000000
C    -1.236000000    -0.978000000     0.595000000
H    -1.814000000    -0.472000000     1.364000000
C    -0.263000000    -0.226000000    -0.083000000
C     0.013000000     1.203000000     0.284000000
H     0.694000000     1.248000000     1.137000000
H     0.311000000     1.672000000    -0.655000000
H    -0.963000000     1.637000000     0.511000000
C     0.579000000    -0.944000000    -0.973000000
H     1.434000000    -0.372000000    -1.324000000
C     0.404000000    -2.292000000    -1.174000000
H     1.058000000    -2.800000000    -1.878000000
C    -0.682000000    -2.976000000    -0.618000000
C    -0.818000000    -4.458000000    -0.836000000
O    -0.031000000    -4.994000000    -1.572000000
O    -1.675000000    -5.077000000    -0.282000000
