17
-93.87993
C    -1.856000000     1.583000000    -0.842000000
H    -2.631000000     1.689000000    -1.597000000
C    -0.778000000     0.713000000    -1.031000000
H    -0.637000000     0.346000000    -2.045000000
C     0.123000000     0.470000000     0.011000000
C     1.328000000    -0.381000000    -0.269000000
H     1.091000000    -1.065000000    -1.087000000
H     2.138000000     0.269000000    -0.606000000
H     1.653000000    -0.879000000     0.647000000
C    -0.192000000     0.898000000     1.261000000
H     0.442000000     0.665000000     2.113000000
C    -1.233000000     1.802000000     1.455000000
H    -1.448000000     2.121000000     2.471000000
C    -2.092000000     2.172000000     0.418000000
C    -3.224000000     3.046000000     0.782000000
O    -3.612000000     3.287000000     1.896000000
O    -3.990000000     3.407000000    -0.150000000
