17
-94.34735
C    -2.122000000     1.605000000    -0.526000000
H    -2.718000000     1.965000000    -1.361000000
C    -0.830000000     1.069000000    -0.705000000
H    -0.443000000     0.986000000    -1.717000000
C    -0.103000000     0.544000000     0.336000000
C     1.295000000    -0.016000000     0.114000000
H     1.854000000    -0.536000000     0.894000000
H     1.316000000    -0.770000000    -0.676000000
H     1.953000000     0.786000000    -0.228000000
C    -0.602000000     0.675000000     1.671000000
H     0.024000000     0.283000000     2.469000000
C    -1.816000000     1.296000000     1.875000000
H    -2.189000000     1.499000000     2.875000000
C    -2.536000000     1.686000000     0.834000000
C    -3.815000000     2.446000000     1.121000000
O    -4.238000000     2.589000000     2.250000000
O    -4.395000000     2.902000000     0.157000000
