17
-90.64024
C    -2.464000000     1.228000000    -1.367000000
H    -3.076000000     1.285000000    -2.264000000
C    -1.344000000     0.409000000    -1.369000000
H    -1.047000000    -0.068000000    -2.301000000
C    -0.569000000     0.347000000    -0.225000000
C     0.709000000    -0.451000000    -0.188000000
H     1.162000000    -0.441000000    -1.181000000
H     1.386000000     0.032000000     0.521000000
H     0.637000000    -1.495000000     0.123000000
C    -0.979000000     0.990000000     0.996000000
H    -0.322000000     0.966000000     1.862000000
C    -2.212000000     1.663000000     1.000000000
H    -2.405000000     2.235000000     1.903000000
C    -2.939000000     1.842000000    -0.210000000
C    -4.112000000     2.680000000    -0.268000000
O    -4.404000000     3.260000000     0.751000000
O    -4.784000000     2.697000000    -1.235000000
