17
-94.35158
C    -2.452000000    -0.367000000    -0.061000000
H    -3.337000000    -0.942000000     0.198000000
C    -1.149000000    -0.894000000     0.037000000
H    -0.964000000    -1.948000000     0.232000000
C    -0.112000000    -0.015000000    -0.069000000
C     1.363000000    -0.532000000     0.025000000
H     2.036000000     0.236000000    -0.362000000
H     1.547000000    -0.863000000     1.049000000
H     1.516000000    -1.422000000    -0.590000000
C    -0.365000000     1.359000000    -0.452000000
H     0.530000000     1.923000000    -0.702000000
C    -1.645000000     1.837000000    -0.619000000
H    -1.761000000     2.841000000    -1.020000000
C    -2.686000000     0.999000000    -0.287000000
C    -4.106000000     1.531000000    -0.307000000
O    -4.324000000     2.718000000    -0.377000000
O    -5.022000000     0.771000000    -0.023000000
