17
-87.81145
C    -2.456000000     0.036000000     0.970000000
H    -3.296000000    -0.548000000     1.339000000
C    -1.399000000    -0.603000000     0.290000000
H    -1.347000000    -1.689000000     0.264000000
C    -0.279000000     0.082000000     0.008000000
C     1.061000000    -0.645000000    -0.270000000
H     0.919000000    -1.722000000    -0.164000000
H     1.445000000    -0.446000000    -1.273000000
H     1.875000000    -0.368000000     0.404000000
C    -0.369000000     1.496000000     0.020000000
H     0.522000000     2.113000000    -0.063000000
C    -1.486000000     2.179000000     0.538000000
H    -1.372000000     3.243000000     0.730000000
C    -2.590000000     1.454000000     0.948000000
C    -3.690000000     2.110000000     1.701000000
O    -3.589000000     3.257000000     1.971000000
O    -4.694000000     1.461000000     2.061000000
