17
-97.63952
C    -2.837000000     0.166000000     0.728000000
H    -3.776000000    -0.362000000     0.875000000
C    -1.708000000    -0.592000000     0.440000000
H    -1.820000000    -1.666000000     0.313000000
C    -0.484000000     0.048000000     0.193000000
C     0.758000000    -0.789000000     0.065000000
H     1.284000000    -0.921000000     1.013000000
H     0.573000000    -1.772000000    -0.374000000
H     1.501000000    -0.259000000    -0.534000000
C    -0.401000000     1.470000000     0.213000000
H     0.559000000     1.944000000     0.025000000
C    -1.536000000     2.243000000     0.448000000
H    -1.527000000     3.330000000     0.427000000
C    -2.735000000     1.561000000     0.814000000
C    -4.030000000     2.364000000     0.973000000
O    -4.067000000     3.488000000     1.356000000
O    -5.046000000     1.723000000     0.791000000
