17
-95.48284
C    -2.492000000     0.081000000     0.837000000
H    -3.325000000    -0.545000000     1.147000000
C    -1.285000000    -0.530000000     0.453000000
H    -1.218000000    -1.615000000     0.481000000
C    -0.220000000     0.262000000     0.047000000
C     1.097000000    -0.445000000    -0.320000000
H     1.573000000    -0.140000000    -1.254000000
H     1.920000000    -0.432000000     0.398000000
H     0.923000000    -1.512000000    -0.474000000
C    -0.324000000     1.651000000    -0.154000000
H     0.476000000     2.228000000    -0.611000000
C    -1.556000000     2.266000000     0.263000000
H    -1.536000000     3.348000000     0.166000000
C    -2.667000000     1.495000000     0.707000000
C    -3.964000000     2.148000000     1.156000000
O    -3.895000000     3.357000000     1.303000000
O    -4.907000000     1.507000000     1.513000000
