17
-97.08260
C    -2.695000000    -0.640000000     1.475000000
H    -3.491000000    -1.301000000     1.807000000
C    -1.490000000    -1.151000000     0.842000000
H    -1.299000000    -2.221000000     0.833000000
C    -0.470000000    -0.347000000     0.366000000
C     0.776000000    -0.915000000    -0.199000000
H     1.669000000    -0.293000000    -0.114000000
H     0.969000000    -1.867000000     0.299000000
H     0.573000000    -1.147000000    -1.246000000
C    -0.629000000     1.035000000     0.487000000
H     0.070000000     1.748000000     0.058000000
C    -1.770000000     1.563000000     1.062000000
H    -1.946000000     2.634000000     1.016000000
C    -2.784000000     0.737000000     1.583000000
C    -4.023000000     1.364000000     2.232000000
O    -4.065000000     2.577000000     2.477000000
O    -5.099000000     0.758000000     2.449000000
