17
-92.69195
C    -2.077000000     2.109000000     1.051000000
H    -2.876000000     2.117000000     1.788000000
C    -1.270000000     1.007000000     0.995000000
H    -1.411000000     0.143000000     1.640000000
C    -0.185000000     0.954000000     0.100000000
C     0.720000000    -0.284000000    -0.007000000
H     0.502000000    -1.071000000     0.718000000
H     0.472000000    -0.679000000    -0.994000000
H     1.783000000    -0.075000000     0.136000000
C     0.133000000     1.997000000    -0.698000000
H     1.051000000     2.025000000    -1.280000000
C    -0.678000000     3.114000000    -0.591000000
H    -0.498000000     4.058000000    -1.098000000
C    -1.779000000     3.162000000     0.204000000
C    -2.786000000     4.292000000     0.188000000
O    -2.857000000     5.030000000    -0.765000000
O    -3.720000000     4.256000000     0.987000000
