17
-94.27957
C    -2.631000000     0.948000000     1.128000000
H    -3.551000000     0.633000000     1.613000000
C    -1.620000000     0.033000000     0.899000000
H    -1.835000000    -0.942000000     1.328000000
C    -0.523000000     0.324000000     0.127000000
C     0.578000000    -0.672000000     0.165000000
H     1.487000000    -0.331000000     0.665000000
H     0.300000000    -1.582000000     0.701000000
H     0.755000000    -0.989000000    -0.865000000
C    -0.347000000     1.669000000    -0.267000000
H     0.582000000     1.840000000    -0.805000000
C    -1.314000000     2.632000000    -0.068000000
H    -1.092000000     3.625000000    -0.452000000
C    -2.512000000     2.242000000     0.612000000
C    -3.583000000     3.254000000     0.865000000
O    -3.516000000     4.348000000     0.341000000
O    -4.518000000     3.010000000     1.608000000
