17
-90.59715
C    -2.571000000     0.128000000     0.426000000
H    -3.498000000    -0.438000000     0.386000000
C    -1.327000000    -0.510000000     0.350000000
H    -1.292000000    -1.596000000     0.373000000
C    -0.195000000     0.297000000     0.363000000
C     1.142000000    -0.360000000     0.045000000
H     1.539000000    -1.056000000     0.787000000
H     1.029000000    -1.011000000    -0.824000000
H     1.900000000     0.426000000     0.027000000
C    -0.330000000     1.675000000     0.595000000
H     0.443000000     2.426000000     0.447000000
C    -1.574000000     2.265000000     0.697000000
H    -1.558000000     3.351000000     0.719000000
C    -2.681000000     1.510000000     0.635000000
C    -4.023000000     2.126000000     0.878000000
O    -4.146000000     3.140000000     1.506000000
O    -5.050000000     1.474000000     0.612000000
