17
-90.99353
C    -2.353000000     1.447000000     0.166000000
H    -3.320000000     1.398000000     0.658000000
C    -1.395000000     0.587000000     0.682000000
H    -1.474000000    -0.111000000     1.512000000
C    -0.227000000     0.497000000     0.003000000
C     0.779000000    -0.547000000     0.412000000
H     1.789000000    -0.150000000     0.533000000
H     0.587000000    -0.982000000     1.395000000
H     0.997000000    -1.347000000    -0.299000000
C     0.031000000     1.320000000    -1.090000000
H     0.944000000     1.341000000    -1.680000000
C    -0.943000000     2.214000000    -1.564000000
H    -0.720000000     2.889000000    -2.386000000
C    -2.162000000     2.351000000    -0.867000000
C    -3.262000000     3.314000000    -1.231000000
O    -3.271000000     3.898000000    -2.274000000
O    -4.191000000     3.358000000    -0.476000000
