17
-92.37263
C    -1.298000000    -2.620000000    -1.112000000
H    -2.300000000    -3.040000000    -1.155000000
C    -1.137000000    -1.294000000    -0.866000000
H    -2.048000000    -0.703000000    -0.841000000
C     0.036000000    -0.699000000    -0.704000000
C     0.138000000     0.839000000    -0.525000000
H    -0.121000000     1.395000000    -1.428000000
H    -0.502000000     1.175000000     0.293000000
H     1.176000000     1.047000000    -0.257000000
C     1.189000000    -1.404000000    -0.965000000
H     2.151000000    -0.898000000    -0.951000000
C     1.101000000    -2.772000000    -1.218000000
H     1.989000000    -3.399000000    -1.243000000
C    -0.160000000    -3.407000000    -1.286000000
C    -0.278000000    -4.845000000    -1.673000000
O     0.696000000    -5.517000000    -1.554000000
O    -1.381000000    -5.325000000    -1.951000000
