17
-88.36388
C    -2.636000000     0.699000000     0.386000000
H    -3.572000000     0.407000000     0.855000000
C    -1.407000000     0.214000000     0.877000000
H    -1.339000000    -0.561000000     1.637000000
C    -0.209000000     0.449000000     0.231000000
C     1.083000000    -0.305000000     0.487000000
H     0.802000000    -1.181000000     1.075000000
H     1.664000000    -0.565000000    -0.400000000
H     1.749000000     0.214000000     1.181000000
C    -0.250000000     1.346000000    -0.787000000
H     0.667000000     1.531000000    -1.341000000
C    -1.431000000     1.970000000    -1.275000000
H    -1.287000000     2.609000000    -2.142000000
C    -2.625000000     1.546000000    -0.806000000
C    -3.912000000     2.040000000    -1.385000000
O    -3.854000000     2.591000000    -2.456000000
O    -4.985000000     1.863000000    -0.870000000
