17
-95.05770
C    -2.744000000     1.135000000     0.108000000
H    -3.753000000     1.098000000     0.511000000
C    -1.727000000     0.209000000     0.517000000
H    -2.015000000    -0.557000000     1.233000000
C    -0.464000000     0.301000000    -0.076000000
C     0.667000000    -0.515000000     0.531000000
H     0.422000000    -1.035000000     1.460000000
H     1.123000000    -1.078000000    -0.286000000
H     1.476000000     0.190000000     0.735000000
C    -0.192000000     1.335000000    -1.000000000
H     0.787000000     1.421000000    -1.465000000
C    -1.146000000     2.256000000    -1.400000000
H    -0.982000000     2.954000000    -2.217000000
C    -2.455000000     2.090000000    -0.887000000
C    -3.440000000     3.151000000    -1.218000000
O    -2.983000000     4.129000000    -1.823000000
O    -4.628000000     3.067000000    -1.026000000
