17
-83.68073
C    -2.439000000     0.870000000     0.741000000
H    -3.406000000     0.614000000     1.168000000
C    -1.392000000    -0.037000000     0.826000000
H    -1.554000000    -1.017000000     1.268000000
C    -0.139000000     0.250000000     0.304000000
C     0.943000000    -0.680000000     0.475000000
H     1.584000000    -0.908000000    -0.379000000
H     1.637000000    -0.477000000     1.293000000
H     0.618000000    -1.691000000     0.728000000
C     0.037000000     1.439000000    -0.394000000
H     0.968000000     1.623000000    -0.924000000
C    -1.101000000     2.341000000    -0.539000000
H    -0.956000000     3.351000000    -0.913000000
C    -2.324000000     2.025000000     0.075000000
C    -3.552000000     2.924000000     0.018000000
O    -3.582000000     4.144000000     0.078000000
O    -4.594000000     2.433000000    -0.312000000
