17
-97.72676
C    -2.628000000     0.204000000     0.132000000
H    -3.458000000    -0.108000000     0.761000000
C    -1.357000000    -0.234000000     0.486000000
H    -1.220000000    -0.838000000     1.380000000
C    -0.283000000     0.166000000    -0.311000000
C     1.037000000    -0.445000000    -0.086000000
H     1.378000000     0.020000000     0.841000000
H     1.009000000    -1.534000000    -0.009000000
H     1.800000000    -0.274000000    -0.848000000
C    -0.460000000     0.939000000    -1.487000000
H     0.415000000     1.185000000    -2.084000000
C    -1.755000000     1.413000000    -1.799000000
H    -1.959000000     2.002000000    -2.689000000
C    -2.802000000     1.020000000    -0.972000000
C    -4.228000000     1.609000000    -1.252000000
O    -4.377000000     2.305000000    -2.197000000
O    -5.166000000     1.347000000    -0.508000000
