17
-99.49301
C    -2.804000000     0.397000000     0.378000000
H    -3.695000000     0.364000000     0.999000000
C    -1.710000000    -0.548000000     0.579000000
H    -1.810000000    -1.185000000     1.454000000
C    -0.513000000    -0.457000000    -0.132000000
C     0.751000000    -1.214000000     0.102000000
H     0.691000000    -1.896000000     0.952000000
H     1.036000000    -1.890000000    -0.707000000
H     1.583000000    -0.512000000     0.187000000
C    -0.451000000     0.517000000    -1.157000000
H     0.518000000     0.594000000    -1.642000000
C    -1.519000000     1.425000000    -1.413000000
H    -1.369000000     2.303000000    -2.037000000
C    -2.683000000     1.343000000    -0.682000000
C    -3.771000000     2.388000000    -0.811000000
O    -3.717000000     3.183000000    -1.748000000
O    -4.682000000     2.358000000     0.037000000
