17
-100.93597
C    -2.620000000     0.757000000     0.009000000
H    -3.526000000     0.476000000     0.540000000
C    -1.549000000    -0.164000000     0.130000000
H    -1.578000000    -1.115000000     0.657000000
C    -0.293000000     0.235000000    -0.360000000
C     0.875000000    -0.713000000    -0.196000000
H     1.422000000    -0.825000000    -1.134000000
H     1.541000000    -0.336000000     0.584000000
H     0.604000000    -1.740000000     0.057000000
C    -0.203000000     1.392000000    -1.122000000
H     0.749000000     1.657000000    -1.576000000
C    -1.312000000     2.214000000    -1.320000000
H    -1.308000000     3.162000000    -1.852000000
C    -2.583000000     1.911000000    -0.766000000
C    -3.940000000     2.600000000    -1.095000000
O    -3.889000000     3.355000000    -2.052000000
O    -4.943000000     2.315000000    -0.463000000
