17
-88.06718
C    -2.213000000     0.917000000     0.273000000
H    -3.175000000     0.911000000     0.778000000
C    -1.243000000     0.179000000     0.780000000
H    -1.377000000    -0.316000000     1.738000000
C     0.016000000     0.043000000     0.155000000
C     1.123000000    -0.870000000     0.607000000
H     0.995000000    -1.831000000     0.105000000
H     2.089000000    -0.492000000     0.265000000
H     1.106000000    -0.967000000     1.694000000
C     0.187000000     0.734000000    -1.016000000
H     1.201000000     0.748000000    -1.407000000
C    -0.851000000     1.548000000    -1.580000000
H    -0.700000000     1.956000000    -2.576000000
C    -2.122000000     1.550000000    -0.914000000
C    -3.160000000     2.468000000    -1.336000000
O    -2.883000000     3.258000000    -2.252000000
O    -4.139000000     2.651000000    -0.623000000
