17
-89.03808
C    -2.475000000     0.624000000    -0.225000000
H    -3.497000000     0.533000000     0.132000000
C    -1.501000000    -0.248000000     0.257000000
H    -1.696000000    -1.036000000     0.981000000
C    -0.184000000    -0.092000000    -0.219000000
C     0.892000000    -1.082000000     0.289000000
H     1.365000000    -1.568000000    -0.567000000
H     1.590000000    -0.412000000     0.794000000
H     0.521000000    -1.826000000     0.997000000
C     0.095000000     1.020000000    -1.025000000
H     1.121000000     1.283000000    -1.272000000
C    -0.860000000     1.800000000    -1.579000000
H    -0.605000000     2.726000000    -2.090000000
C    -2.193000000     1.610000000    -1.125000000
C    -3.376000000     2.419000000    -1.745000000
O    -3.094000000     3.333000000    -2.466000000
O    -4.441000000     2.422000000    -1.154000000
