17
-88.10242
C    -1.649000000    -2.591000000    -0.665000000
H    -2.642000000    -3.032000000    -0.653000000
C    -1.460000000    -1.239000000    -0.446000000
H    -2.312000000    -0.679000000    -0.070000000
C    -0.138000000    -0.681000000    -0.607000000
C     0.223000000     0.785000000    -0.391000000
H     0.664000000     1.168000000    -1.314000000
H    -0.712000000     1.340000000    -0.292000000
H     0.859000000     0.913000000     0.487000000
C     0.921000000    -1.468000000    -1.084000000
H     1.880000000    -0.963000000    -1.166000000
C     0.685000000    -2.861000000    -1.324000000
H     1.468000000    -3.475000000    -1.762000000
C    -0.616000000    -3.433000000    -1.082000000
C    -0.877000000    -4.936000000    -1.355000000
O     0.004000000    -5.725000000    -1.516000000
O    -1.968000000    -5.423000000    -1.134000000
