17
-90.02565
C    -2.575000000     0.504000000    -0.094000000
H    -3.496000000     0.472000000     0.481000000
C    -1.464000000    -0.286000000     0.313000000
H    -1.552000000    -0.923000000     1.189000000
C    -0.220000000    -0.209000000    -0.280000000
C     0.980000000    -1.007000000     0.224000000
H     0.747000000    -2.073000000     0.272000000
H     1.920000000    -0.908000000    -0.322000000
H     1.136000000    -0.762000000     1.276000000
C    -0.113000000     0.559000000    -1.441000000
H     0.777000000     0.498000000    -2.063000000
C    -1.235000000     1.224000000    -1.878000000
H    -1.033000000     1.784000000    -2.788000000
C    -2.420000000     1.249000000    -1.238000000
C    -3.474000000     2.167000000    -1.737000000
O    -3.341000000     2.922000000    -2.669000000
O    -4.479000000     2.322000000    -1.060000000
