17
-91.37534
C    -2.396000000     0.684000000    -0.345000000
H    -3.347000000     0.762000000     0.177000000
C    -1.392000000    -0.111000000     0.239000000
H    -1.520000000    -0.656000000     1.170000000
C    -0.172000000    -0.157000000    -0.344000000
C     0.930000000    -0.879000000     0.335000000
H     1.070000000    -1.868000000    -0.106000000
H     1.902000000    -0.412000000     0.161000000
H     0.799000000    -1.072000000     1.402000000
C     0.145000000     0.606000000    -1.416000000
H     1.179000000     0.612000000    -1.752000000
C    -0.842000000     1.342000000    -2.086000000
H    -0.689000000     1.827000000    -3.047000000
C    -2.160000000     1.322000000    -1.564000000
C    -3.359000000     2.093000000    -2.216000000
O    -3.137000000     2.655000000    -3.292000000
O    -4.404000000     1.980000000    -1.740000000
