17
-94.70452
C    -2.371000000     0.395000000    -1.521000000
H    -3.452000000     0.364000000    -1.623000000
C    -1.601000000    -0.235000000    -0.528000000
H    -2.125000000    -0.941000000     0.112000000
C    -0.251000000     0.040000000    -0.377000000
C     0.591000000    -0.677000000     0.714000000
H     1.123000000    -1.585000000     0.424000000
H     1.391000000    -0.069000000     1.143000000
H    -0.014000000    -1.013000000     1.559000000
C     0.343000000     0.865000000    -1.368000000
H     1.422000000     0.966000000    -1.278000000
C    -0.396000000     1.518000000    -2.307000000
H     0.199000000     2.110000000    -2.998000000
C    -1.809000000     1.284000000    -2.425000000
C    -2.597000000     2.017000000    -3.492000000
O    -2.001000000     2.870000000    -4.109000000
O    -3.795000000     1.861000000    -3.672000000
