17
-97.14670
C    -1.460000000    -2.707000000    -0.567000000
H    -2.428000000    -3.201000000    -0.587000000
C    -1.338000000    -1.356000000    -0.276000000
H    -2.172000000    -0.806000000     0.153000000
C    -0.118000000    -0.717000000    -0.405000000
C    -0.035000000     0.761000000    -0.147000000
H    -1.004000000     1.140000000     0.186000000
H     0.748000000     0.937000000     0.593000000
H     0.319000000     1.468000000    -0.901000000
C     1.018000000    -1.433000000    -0.682000000
H     1.991000000    -0.953000000    -0.746000000
C     0.880000000    -2.775000000    -1.002000000
H     1.755000000    -3.327000000    -1.337000000
C    -0.323000000    -3.413000000    -0.964000000
C    -0.491000000    -4.921000000    -1.189000000
O     0.497000000    -5.604000000    -1.403000000
O    -1.584000000    -5.429000000    -1.186000000
