17
-96.03489
C    -3.294000000     0.775000000    -0.804000000
H    -4.271000000     0.420000000    -0.485000000
C    -2.162000000     0.168000000    -0.266000000
H    -2.293000000    -0.595000000     0.498000000
C    -0.965000000     0.665000000    -0.726000000
C     0.336000000     0.303000000    -0.059000000
H     0.712000000     1.189000000     0.457000000
H     0.073000000    -0.429000000     0.707000000
H     1.008000000    -0.152000000    -0.789000000
C    -0.904000000     1.630000000    -1.703000000
H     0.066000000     1.957000000    -2.068000000
C    -2.022000000     2.230000000    -2.225000000
H    -2.095000000     3.117000000    -2.848000000
C    -3.302000000     1.756000000    -1.770000000
C    -4.577000000     2.306000000    -2.297000000
O    -4.598000000     3.283000000    -3.040000000
O    -5.653000000     1.678000000    -2.137000000
