17
-96.49595
C    -2.419000000     0.919000000     0.723000000
H    -3.078000000     0.991000000     1.585000000
C    -1.267000000     0.164000000     0.934000000
H    -1.169000000    -0.240000000     1.939000000
C    -0.347000000    -0.070000000    -0.137000000
C     0.913000000    -0.806000000     0.187000000
H     1.716000000    -0.081000000     0.038000000
H     0.902000000    -1.190000000     1.209000000
H     1.166000000    -1.569000000    -0.553000000
C    -0.583000000     0.463000000    -1.396000000
H     0.156000000     0.450000000    -2.194000000
C    -1.781000000     1.236000000    -1.612000000
H    -2.057000000     1.423000000    -2.646000000
C    -2.717000000     1.399000000    -0.554000000
C    -4.055000000     2.147000000    -0.709000000
O    -4.059000000     3.115000000    -1.458000000
O    -5.090000000     1.748000000    -0.207000000
