17
-93.48491
C    -2.484000000     0.466000000     0.442000000
H    -3.354000000     0.147000000     1.010000000
C    -1.253000000    -0.086000000     0.671000000
H    -1.055000000    -0.820000000     1.448000000
C    -0.150000000     0.020000000    -0.260000000
C     1.045000000    -0.807000000    -0.204000000
H     1.816000000    -0.363000000    -0.837000000
H     1.456000000    -0.837000000     0.808000000
H     0.949000000    -1.805000000    -0.638000000
C    -0.295000000     0.891000000    -1.360000000
H     0.533000000     1.048000000    -2.046000000
C    -1.493000000     1.584000000    -1.505000000
H    -1.600000000     2.161000000    -2.420000000
C    -2.638000000     1.297000000    -0.711000000
C    -3.989000000     1.891000000    -1.033000000
O    -4.163000000     2.321000000    -2.150000000
O    -4.953000000     1.855000000    -0.262000000
