17
-90.73920
C    -2.779000000     0.147000000     0.222000000
H    -3.616000000     0.043000000     0.909000000
C    -1.589000000    -0.413000000     0.594000000
H    -1.458000000    -0.891000000     1.562000000
C    -0.546000000    -0.300000000    -0.293000000
C     0.792000000    -1.032000000    -0.043000000
H     1.461000000    -0.366000000     0.507000000
H     0.678000000    -1.869000000     0.649000000
H     1.259000000    -1.418000000    -0.951000000
C    -0.684000000     0.415000000    -1.536000000
H     0.154000000     0.510000000    -2.221000000
C    -1.860000000     1.104000000    -1.765000000
H    -2.175000000     1.594000000    -2.683000000
C    -2.981000000     0.938000000    -0.908000000
C    -4.324000000     1.547000000    -1.159000000
O    -4.507000000     2.291000000    -2.114000000
O    -5.128000000     1.614000000    -0.257000000
