17
-101.03014
C    -2.812000000     0.153000000     0.199000000
H    -3.741000000    -0.027000000     0.734000000
C    -1.585000000    -0.454000000     0.437000000
H    -1.501000000    -1.158000000     1.261000000
C    -0.464000000    -0.147000000    -0.298000000
C     0.831000000    -0.772000000    -0.016000000
H     0.739000000    -1.475000000     0.814000000
H     1.127000000    -1.219000000    -0.968000000
H     1.514000000     0.014000000     0.313000000
C    -0.511000000     0.820000000    -1.352000000
H     0.399000000     1.085000000    -1.884000000
C    -1.735000000     1.430000000    -1.570000000
H    -1.770000000     2.031000000    -2.475000000
C    -2.914000000     1.086000000    -0.854000000
C    -4.312000000     1.588000000    -1.297000000
O    -4.361000000     2.461000000    -2.177000000
O    -5.312000000     1.158000000    -0.716000000
