17
-95.45205
C    -2.155000000     0.761000000    -0.008000000
H    -3.186000000     0.791000000     0.335000000
C    -1.173000000    -0.058000000     0.582000000
H    -1.432000000    -0.692000000     1.426000000
C     0.108000000    -0.136000000    -0.028000000
C     1.027000000    -1.156000000     0.463000000
H     1.970000000    -0.744000000     0.829000000
H     0.546000000    -1.713000000     1.269000000
H     1.254000000    -1.810000000    -0.382000000
C     0.409000000     0.713000000    -1.090000000
H     1.304000000     0.506000000    -1.671000000
C    -0.481000000     1.721000000    -1.543000000
H    -0.244000000     2.468000000    -2.296000000
C    -1.793000000     1.703000000    -1.019000000
C    -2.789000000     2.722000000    -1.517000000
O    -2.514000000     3.534000000    -2.335000000
O    -3.963000000     2.746000000    -1.050000000
