17
-84.60505
C    -2.333000000     1.353000000     0.862000000
H    -2.991000000     1.692000000     1.658000000
C    -1.330000000     0.488000000     1.091000000
H    -1.156000000    -0.026000000     2.033000000
C    -0.443000000     0.152000000     0.062000000
C     0.670000000    -0.907000000     0.359000000
H     0.173000000    -1.844000000     0.620000000
H     1.241000000    -0.993000000    -0.568000000
H     1.371000000    -0.620000000     1.145000000
C    -0.569000000     0.818000000    -1.167000000
H     0.075000000     0.555000000    -2.002000000
C    -1.621000000     1.609000000    -1.445000000
H    -1.720000000     2.067000000    -2.425000000
C    -2.540000000     1.928000000    -0.447000000
C    -3.642000000     2.970000000    -0.623000000
O    -3.862000000     3.303000000    -1.714000000
O    -4.308000000     3.477000000     0.267000000
