17
-89.75876
C    -2.276000000     1.180000000    -0.156000000
H    -3.292000000     1.235000000     0.226000000
C    -1.361000000     0.309000000     0.409000000
H    -1.624000000    -0.165000000     1.350000000
C    -0.153000000     0.044000000    -0.241000000
C     0.751000000    -1.076000000     0.053000000
H     0.755000000    -1.700000000    -0.843000000
H     1.808000000    -0.878000000     0.245000000
H     0.408000000    -1.747000000     0.843000000
C     0.233000000     0.781000000    -1.355000000
H     1.200000000     0.678000000    -1.841000000
C    -0.634000000     1.822000000    -1.807000000
H    -0.301000000     2.518000000    -2.573000000
C    -1.870000000     1.988000000    -1.203000000
C    -2.783000000     3.037000000    -1.774000000
O    -2.540000000     3.418000000    -2.841000000
O    -3.748000000     3.514000000    -1.151000000
