17
-95.32499
C    -2.036000000     1.364000000     1.154000000
H    -2.689000000     1.412000000     2.021000000
C    -1.087000000     0.294000000     1.025000000
H    -0.908000000    -0.420000000     1.824000000
C    -0.323000000     0.150000000    -0.198000000
C     0.572000000    -1.026000000    -0.384000000
H     0.032000000    -1.720000000    -1.031000000
H     1.524000000    -0.758000000    -0.847000000
H     0.770000000    -1.607000000     0.520000000
C    -0.551000000     1.026000000    -1.252000000
H    -0.078000000     0.868000000    -2.217000000
C    -1.524000000     1.934000000    -1.165000000
H    -1.805000000     2.551000000    -2.015000000
C    -2.248000000     2.149000000    -0.006000000
C    -3.340000000     3.207000000     0.027000000
O    -3.465000000     3.936000000    -0.929000000
O    -3.904000000     3.337000000     1.076000000
