17
-88.58746
C    -2.215000000     1.843000000    -0.479000000
H    -3.081000000     2.103000000     0.123000000
C    -1.447000000     0.754000000    -0.057000000
H    -1.728000000     0.266000000     0.873000000
C    -0.275000000     0.400000000    -0.608000000
C     0.597000000    -0.646000000     0.061000000
H     1.012000000    -1.376000000    -0.636000000
H     1.443000000    -0.107000000     0.492000000
H     0.024000000    -1.190000000     0.814000000
C     0.208000000     1.176000000    -1.706000000
H     1.212000000     1.042000000    -2.100000000
C    -0.614000000     2.214000000    -2.173000000
H    -0.230000000     2.836000000    -2.978000000
C    -1.822000000     2.569000000    -1.611000000
C    -2.643000000     3.808000000    -1.976000000
O    -2.088000000     4.700000000    -2.582000000
O    -3.635000000     4.094000000    -1.382000000
