17
-97.54518
C    -1.622000000     1.597000000     0.603000000
H    -2.187000000     1.983000000     1.447000000
C    -0.807000000     0.481000000     0.865000000
H    -0.715000000     0.079000000     1.871000000
C    -0.200000000    -0.133000000    -0.243000000
C     0.644000000    -1.307000000     0.043000000
H     0.157000000    -2.002000000     0.731000000
H     0.695000000    -1.986000000    -0.810000000
H     1.646000000    -1.058000000     0.399000000
C    -0.272000000     0.456000000    -1.542000000
H     0.318000000    -0.019000000    -2.322000000
C    -1.091000000     1.572000000    -1.744000000
H    -1.138000000     2.037000000    -2.725000000
C    -1.757000000     2.172000000    -0.641000000
C    -2.562000000     3.422000000    -0.810000000
O    -2.769000000     3.785000000    -1.989000000
O    -2.589000000     4.256000000     0.117000000
