17
-93.29045
C    -1.851000000     2.180000000     0.741000000
H    -2.501000000     2.571000000     1.519000000
C    -1.156000000     0.992000000     0.973000000
H    -1.283000000     0.357000000     1.846000000
C    -0.425000000     0.477000000    -0.058000000
C     0.140000000    -0.922000000     0.114000000
H     0.642000000    -1.177000000    -0.822000000
H     0.784000000    -0.874000000     0.994000000
H    -0.632000000    -1.664000000     0.329000000
C    -0.435000000     1.139000000    -1.280000000
H    -0.007000000     0.568000000    -2.100000000
C    -1.031000000     2.370000000    -1.489000000
H    -0.994000000     2.903000000    -2.436000000
C    -1.795000000     2.928000000    -0.436000000
C    -2.564000000     4.172000000    -0.662000000
O    -2.376000000     4.805000000    -1.701000000
O    -3.185000000     4.708000000     0.224000000
