17
-94.34924
C    -1.349000000     2.636000000    -0.069000000
H    -1.844000000     3.360000000     0.573000000
C    -1.034000000     1.401000000     0.415000000
H    -1.325000000     1.183000000     1.439000000
C    -0.284000000     0.468000000    -0.307000000
C    -0.196000000    -0.898000000     0.245000000
H    -1.136000000    -1.370000000     0.540000000
H     0.259000000    -1.600000000    -0.458000000
H     0.442000000    -0.892000000     1.131000000
C     0.176000000     0.797000000    -1.549000000
H     0.784000000     0.161000000    -2.187000000
C    -0.048000000     2.114000000    -2.008000000
H     0.247000000     2.371000000    -3.022000000
C    -0.720000000     3.054000000    -1.205000000
C    -0.705000000     4.473000000    -1.600000000
O     0.074000000     4.881000000    -2.455000000
O    -1.435000000     5.231000000    -1.003000000
