17
-94.49542
C    -1.631000000     3.764000000     0.306000000
H    -2.268000000     4.268000000     1.029000000
C    -0.783000000     2.723000000     0.566000000
H    -0.669000000     2.394000000     1.596000000
C    -0.202000000     1.988000000    -0.459000000
C     0.633000000     0.712000000    -0.192000000
H     1.631000000     1.017000000    -0.513000000
H     0.688000000     0.471000000     0.872000000
H     0.244000000    -0.195000000    -0.659000000
C    -0.380000000     2.429000000    -1.750000000
H     0.170000000     2.017000000    -2.592000000
C    -1.162000000     3.557000000    -2.075000000
H    -1.068000000     4.019000000    -3.055000000
C    -1.796000000     4.211000000    -1.039000000
C    -2.307000000     5.628000000    -1.161000000
O    -2.482000000     6.045000000    -2.302000000
O    -2.492000000     6.362000000    -0.199000000
