17
-98.19425
C    -1.394000000     2.543000000     0.811000000
H    -2.052000000     3.012000000     1.538000000
C    -1.052000000     1.170000000     0.856000000
H    -1.298000000     0.611000000     1.755000000
C    -0.387000000     0.560000000    -0.194000000
C     0.073000000    -0.851000000     0.016000000
H    -0.547000000    -1.453000000     0.683000000
H     0.094000000    -1.390000000    -0.934000000
H     1.052000000    -0.871000000     0.498000000
C    -0.206000000     1.233000000    -1.371000000
H     0.294000000     0.757000000    -2.210000000
C    -0.594000000     2.592000000    -1.499000000
H    -0.391000000     3.080000000    -2.448000000
C    -1.192000000     3.280000000    -0.382000000
C    -1.647000000     4.745000000    -0.592000000
O    -1.455000000     5.252000000    -1.715000000
O    -2.113000000     5.471000000     0.285000000
