17
-90.85759
C    -1.653000000     2.166000000     0.058000000
H    -2.485000000     2.658000000     0.555000000
C    -1.085000000     0.956000000     0.599000000
H    -1.409000000     0.512000000     1.537000000
C    -0.129000000     0.289000000    -0.130000000
C     0.438000000    -1.018000000     0.355000000
H     0.394000000    -1.763000000    -0.443000000
H     1.484000000    -0.914000000     0.649000000
H    -0.218000000    -1.423000000     1.129000000
C     0.398000000     0.812000000    -1.313000000
H     1.173000000     0.247000000    -1.824000000
C    -0.095000000     1.997000000    -1.773000000
H     0.336000000     2.311000000    -2.720000000
C    -1.102000000     2.664000000    -1.061000000
C    -1.725000000     3.828000000    -1.779000000
O    -1.230000000     4.282000000    -2.793000000
O    -2.602000000     4.425000000    -1.256000000
