17
-94.20213
C    -1.913000000    -2.067000000    -0.368000000
H    -2.916000000    -2.346000000    -0.055000000
C    -1.578000000    -0.707000000    -0.202000000
H    -2.248000000    -0.052000000     0.349000000
C    -0.303000000    -0.340000000    -0.428000000
C     0.134000000     1.093000000    -0.240000000
H    -0.550000000     1.771000000     0.274000000
H     0.970000000     1.028000000     0.460000000
H     0.626000000     1.512000000    -1.120000000
C     0.627000000    -1.280000000    -0.939000000
H     1.679000000    -1.099000000    -1.142000000
C     0.209000000    -2.607000000    -1.260000000
H     1.013000000    -3.290000000    -1.524000000
C    -1.072000000    -3.024000000    -0.949000000
C    -1.444000000    -4.508000000    -0.962000000
O    -0.542000000    -5.293000000    -1.144000000
O    -2.594000000    -4.902000000    -0.613000000
