17
-98.20435
C    -1.370000000     2.067000000     0.997000000
H    -2.033000000     2.346000000     1.812000000
C    -0.831000000     0.793000000     0.994000000
H    -0.830000000     0.137000000     1.860000000
C    -0.019000000     0.365000000    -0.033000000
C     0.590000000    -1.010000000     0.040000000
H     0.137000000    -1.649000000     0.801000000
H     0.480000000    -1.486000000    -0.937000000
H     1.639000000    -0.938000000     0.333000000
C     0.131000000     1.084000000    -1.196000000
H     0.769000000     0.702000000    -1.989000000
C    -0.485000000     2.357000000    -1.247000000
H    -0.331000000     2.911000000    -2.170000000
C    -1.199000000     2.888000000    -0.158000000
C    -1.840000000     4.231000000    -0.244000000
O    -1.360000000     5.067000000    -1.004000000
O    -2.854000000     4.424000000     0.365000000
