17
-91.45650
C    -1.815000000    -2.292000000    -0.460000000
H    -2.803000000    -2.701000000    -0.260000000
C    -1.470000000    -0.939000000    -0.310000000
H    -2.229000000    -0.217000000    -0.020000000
C    -0.137000000    -0.540000000    -0.516000000
C     0.247000000     0.850000000    -0.470000000
H    -0.333000000     1.305000000     0.336000000
H     1.297000000     0.990000000    -0.204000000
H     0.015000000     1.312000000    -1.432000000
C     0.825000000    -1.545000000    -0.801000000
H     1.844000000    -1.228000000    -1.009000000
C     0.428000000    -2.873000000    -0.978000000
H     1.207000000    -3.625000000    -1.074000000
C    -0.921000000    -3.220000000    -0.805000000
C    -1.271000000    -4.630000000    -0.998000000
O    -0.532000000    -5.507000000    -1.316000000
O    -2.442000000    -4.968000000    -0.671000000
