17
-98.14177
C    -1.031000000     1.920000000     1.382000000
H    -1.547000000     2.301000000     2.260000000
C    -0.734000000     0.576000000     1.165000000
H    -1.046000000    -0.149000000     1.913000000
C    -0.089000000     0.191000000    -0.024000000
C     0.103000000    -1.286000000    -0.237000000
H    -0.849000000    -1.819000000    -0.194000000
H     0.503000000    -1.534000000    -1.222000000
H     0.817000000    -1.642000000     0.508000000
C     0.329000000     1.186000000    -0.945000000
H     0.907000000     0.964000000    -1.838000000
C    -0.018000000     2.479000000    -0.687000000
H     0.215000000     3.288000000    -1.373000000
C    -0.661000000     2.864000000     0.472000000
C    -0.883000000     4.370000000     0.634000000
O    -0.749000000     5.162000000    -0.258000000
O    -1.201000000     4.745000000     1.741000000
