17
-98.80580
C     1.008000000     0.557000000     2.244000000
H     1.104000000     0.326000000     3.302000000
C     0.211000000    -0.264000000     1.446000000
H    -0.278000000    -1.177000000     1.776000000
C     0.030000000     0.028000000     0.079000000
C    -0.751000000    -0.865000000    -0.747000000
H    -1.765000000    -0.508000000    -0.937000000
H    -0.289000000    -0.993000000    -1.728000000
H    -0.785000000    -1.902000000    -0.405000000
C     0.734000000     1.144000000    -0.437000000
H     0.439000000     1.468000000    -1.432000000
C     1.420000000     1.979000000     0.405000000
H     1.831000000     2.918000000     0.044000000
C     1.601000000     1.714000000     1.762000000
C     2.484000000     2.622000000     2.630000000
O     2.985000000     3.618000000     2.151000000
O     2.660000000     2.366000000     3.872000000
