17
-99.81566
C     1.327000000     2.149000000     2.386000000
H     1.206000000     2.244000000     3.462000000
C     0.420000000     1.280000000     1.784000000
H    -0.325000000     0.775000000     2.394000000
C     0.379000000     1.099000000     0.403000000
C    -0.650000000     0.242000000    -0.179000000
H    -1.640000000     0.690000000    -0.290000000
H    -0.369000000    -0.175000000    -1.149000000
H    -0.795000000    -0.638000000     0.451000000
C     1.300000000     1.830000000    -0.400000000
H     1.410000000     1.737000000    -1.477000000
C     2.193000000     2.721000000     0.192000000
H     2.865000000     3.279000000    -0.455000000
C     2.198000000     2.892000000     1.588000000
C     3.221000000     3.800000000     2.199000000
O     4.168000000     4.197000000     1.548000000
O     3.121000000     4.069000000     3.378000000
