17
-96.95777
C     1.189000000     1.044000000     2.406000000
H     1.193000000     1.064000000     3.493000000
C     0.154000000     0.348000000     1.736000000
H    -0.537000000    -0.313000000     2.255000000
C     0.113000000     0.347000000     0.341000000
C    -0.806000000    -0.597000000    -0.335000000
H    -1.821000000    -0.198000000    -0.284000000
H    -0.654000000    -0.684000000    -1.413000000
H    -0.787000000    -1.556000000     0.187000000
C     1.069000000     1.064000000    -0.371000000
H     1.064000000     1.163000000    -1.453000000
C     2.123000000     1.757000000     0.232000000
H     2.754000000     2.458000000    -0.310000000
C     2.204000000     1.772000000     1.672000000
C     3.320000000     2.562000000     2.353000000
O     4.100000000     3.167000000     1.662000000
O     3.523000000     2.398000000     3.595000000
