17
-89.98368
C    -0.578000000     2.350000000     2.193000000
H    -0.872000000     2.514000000     3.227000000
C    -0.152000000     1.085000000     1.793000000
H    -0.011000000     0.340000000     2.572000000
C     0.151000000     0.795000000     0.500000000
C     0.509000000    -0.613000000     0.021000000
H     0.339000000    -0.721000000    -1.053000000
H     1.564000000    -0.737000000     0.276000000
H    -0.112000000    -1.364000000     0.512000000
C     0.066000000     1.776000000    -0.499000000
H     0.269000000     1.573000000    -1.548000000
C    -0.275000000     3.080000000    -0.074000000
H    -0.294000000     3.848000000    -0.843000000
C    -0.670000000     3.335000000     1.248000000
C    -1.150000000     4.720000000     1.604000000
O    -1.187000000     5.569000000     0.785000000
O    -1.521000000     5.045000000     2.704000000
