17
-94.76923
C     1.703000000     0.971000000     2.410000000
H     1.973000000     0.698000000     3.427000000
C     0.905000000     0.114000000     1.645000000
H     0.569000000    -0.781000000     2.162000000
C     0.724000000     0.387000000     0.296000000
C    -0.113000000    -0.474000000    -0.576000000
H     0.300000000    -1.458000000    -0.808000000
H    -0.979000000    -0.706000000     0.048000000
H    -0.435000000     0.082000000    -1.459000000
C     1.388000000     1.467000000    -0.299000000
H     1.338000000     1.764000000    -1.344000000
C     2.172000000     2.298000000     0.454000000
H     2.725000000     3.060000000    -0.089000000
C     2.233000000     2.121000000     1.872000000
C     2.931000000     3.101000000     2.732000000
O     3.460000000     4.121000000     2.241000000
O     2.950000000     3.014000000     3.949000000
