17
-90.39169
C    -0.833000000     2.643000000     2.067000000
H    -1.002000000     2.803000000     3.129000000
C    -0.330000000     1.377000000     1.591000000
H    -0.136000000     0.542000000     2.259000000
C    -0.351000000     1.137000000     0.215000000
C    -0.051000000    -0.239000000    -0.289000000
H     0.995000000    -0.550000000    -0.342000000
H    -0.523000000    -1.057000000     0.259000000
H    -0.364000000    -0.188000000    -1.334000000
C    -0.440000000     2.216000000    -0.607000000
H    -0.374000000     2.025000000    -1.675000000
C    -0.762000000     3.446000000    -0.141000000
H    -0.838000000     4.309000000    -0.798000000
C    -1.042000000     3.688000000     1.176000000
C    -1.504000000     5.022000000     1.773000000
O    -1.765000000     5.945000000     1.038000000
O    -1.517000000     5.267000000     2.995000000
