17
-84.81476
C     0.982000000     0.226000000     2.350000000
H     0.903000000    -0.116000000     3.378000000
C     0.127000000    -0.414000000     1.449000000
H    -0.659000000    -1.067000000     1.819000000
C     0.259000000    -0.270000000     0.064000000
C    -0.548000000    -1.136000000    -0.917000000
H    -1.542000000    -0.702000000    -1.043000000
H    -0.088000000    -1.028000000    -1.901000000
H    -0.655000000    -2.138000000    -0.494000000
C     1.239000000     0.604000000    -0.420000000
H     1.202000000     0.694000000    -1.502000000
C     1.979000000     1.308000000     0.506000000
H     2.738000000     1.983000000     0.119000000
C     1.886000000     1.170000000     1.902000000
C     2.812000000     1.916000000     2.781000000
O     3.469000000     2.855000000     2.345000000
O     2.448000000     1.965000000     3.930000000
