17
-101.65172
C     2.062000000     0.772000000     1.376000000
H     2.527000000     0.692000000     2.356000000
C     1.016000000    -0.062000000     1.066000000
H     0.774000000    -0.864000000     1.758000000
C     0.394000000     0.155000000    -0.164000000
C    -0.679000000    -0.692000000    -0.661000000
H    -0.684000000    -0.670000000    -1.753000000
H    -0.573000000    -1.717000000    -0.300000000
H    -1.633000000    -0.303000000    -0.301000000
C     0.844000000     1.161000000    -0.998000000
H     0.370000000     1.420000000    -1.941000000
C     1.911000000     2.033000000    -0.671000000
H     2.139000000     2.871000000    -1.325000000
C     2.546000000     1.825000000     0.543000000
C     3.712000000     2.719000000     0.860000000
O     4.185000000     3.483000000    -0.029000000
O     4.175000000     2.666000000     2.021000000
