17
-96.36111
C     1.569000000     0.393000000     2.169000000
H     1.747000000     0.148000000     3.213000000
C     0.549000000    -0.340000000     1.514000000
H     0.029000000    -1.148000000     2.022000000
C     0.190000000    -0.040000000     0.219000000
C    -0.970000000    -0.834000000    -0.389000000
H    -1.901000000    -0.266000000    -0.455000000
H    -0.790000000    -0.922000000    -1.462000000
H    -1.242000000    -1.833000000    -0.041000000
C     0.840000000     0.920000000    -0.481000000
H     0.492000000     1.083000000    -1.498000000
C     1.844000000     1.604000000     0.091000000
H     2.388000000     2.396000000    -0.419000000
C     2.234000000     1.426000000     1.435000000
C     3.325000000     2.275000000     2.048000000
O     3.562000000     3.375000000     1.515000000
O     3.799000000     1.945000000     3.127000000
