17
-81.61081
C     1.945000000     0.778000000     1.268000000
H     2.477000000     0.693000000     2.212000000
C     0.816000000     0.075000000     0.957000000
H     0.358000000    -0.566000000     1.706000000
C     0.181000000     0.191000000    -0.274000000
C    -1.075000000    -0.637000000    -0.633000000
H    -1.160000000    -1.503000000     0.027000000
H    -1.985000000    -0.091000000    -0.378000000
H    -1.074000000    -0.943000000    -1.681000000
C     0.703000000     1.005000000    -1.219000000
H     0.387000000     0.997000000    -2.259000000
C     1.873000000     1.657000000    -0.936000000
H     2.347000000     2.235000000    -1.725000000
C     2.473000000     1.665000000     0.295000000
C     3.710000000     2.440000000     0.617000000
O     4.044000000     3.265000000    -0.174000000
O     4.017000000     2.663000000     1.771000000
