17
-87.42862
C     2.146000000     0.734000000     2.864000000
H     2.372000000     0.829000000     3.923000000
C     1.012000000     0.137000000     2.340000000
H     0.243000000    -0.216000000     3.023000000
C     0.854000000     0.003000000     1.007000000
C    -0.529000000    -0.390000000     0.520000000
H    -1.132000000     0.501000000     0.706000000
H    -0.512000000    -0.738000000    -0.515000000
H    -0.926000000    -1.063000000     1.283000000
C     1.763000000     0.546000000     0.119000000
H     1.599000000     0.514000000    -0.955000000
C     2.841000000     1.256000000     0.570000000
H     3.550000000     1.732000000    -0.102000000
C     3.088000000     1.275000000     1.916000000
C     4.435000000     1.840000000     2.372000000
O     5.146000000     2.380000000     1.580000000
O     4.718000000     1.905000000     3.543000000
