17
-92.29795
C     1.529000000    -0.088000000     2.187000000
H     1.702000000    -0.604000000     3.129000000
C     0.680000000    -0.697000000     1.282000000
H     0.122000000    -1.562000000     1.631000000
C     0.460000000    -0.200000000     0.033000000
C    -0.646000000    -0.821000000    -0.846000000
H    -1.637000000    -0.440000000    -0.589000000
H    -0.490000000    -0.483000000    -1.872000000
H    -0.620000000    -1.910000000    -0.774000000
C     1.216000000     0.913000000    -0.372000000
H     1.121000000     1.305000000    -1.382000000
C     2.167000000     1.558000000     0.473000000
H     2.733000000     2.412000000     0.111000000
C     2.307000000     1.036000000     1.758000000
C     3.378000000     1.597000000     2.734000000
O     4.116000000     2.520000000     2.447000000
O     3.623000000     1.063000000     3.789000000
