17
-98.73834
C     2.035000000    -0.539000000     1.942000000
H     2.034000000    -0.995000000     2.929000000
C     1.011000000    -0.843000000     1.073000000
H     0.318000000    -1.628000000     1.366000000
C     0.734000000    -0.063000000    -0.073000000
C    -0.375000000    -0.487000000    -1.004000000
H    -1.202000000    -1.084000000    -0.614000000
H    -0.766000000     0.423000000    -1.466000000
H     0.068000000    -1.007000000    -1.856000000
C     1.699000000     0.902000000    -0.367000000
H     1.581000000     1.521000000    -1.253000000
C     2.745000000     1.261000000     0.484000000
H     3.427000000     2.086000000     0.293000000
C     2.891000000     0.568000000     1.726000000
C     3.892000000     0.990000000     2.797000000
O     4.683000000     1.856000000     2.518000000
O     3.773000000     0.518000000     3.928000000
