17
-88.40299
C     1.225000000     0.575000000     2.261000000
H     1.301000000     0.241000000     3.293000000
C     0.451000000    -0.100000000     1.371000000
H    -0.073000000    -1.007000000     1.660000000
C     0.157000000     0.432000000     0.103000000
C    -0.844000000    -0.294000000    -0.770000000
H    -1.243000000     0.394000000    -1.518000000
H    -0.367000000    -1.155000000    -1.242000000
H    -1.704000000    -0.563000000    -0.153000000
C     0.935000000     1.521000000    -0.345000000
H     0.853000000     1.754000000    -1.404000000
C     1.638000000     2.267000000     0.554000000
H     2.210000000     3.137000000     0.242000000
C     1.764000000     1.789000000     1.891000000
C     2.523000000     2.682000000     2.895000000
O     3.319000000     3.479000000     2.552000000
O     2.321000000     2.511000000     4.046000000
