17
-97.68265
C     1.588000000     1.089000000     2.502000000
H     1.750000000     0.696000000     3.502000000
C     0.818000000     0.289000000     1.649000000
H     0.449000000    -0.657000000     2.036000000
C     0.398000000     0.710000000     0.413000000
C    -0.470000000    -0.238000000    -0.416000000
H    -1.315000000    -0.595000000     0.177000000
H    -0.910000000     0.351000000    -1.223000000
H     0.137000000    -1.073000000    -0.772000000
C     0.974000000     1.857000000    -0.080000000
H     0.820000000     2.172000000    -1.109000000
C     1.677000000     2.721000000     0.735000000
H     2.004000000     3.658000000     0.292000000
C     2.019000000     2.342000000     2.113000000
C     2.757000000     3.283000000     3.045000000
O     3.399000000     4.253000000     2.573000000
O     2.867000000     3.002000000     4.236000000
