17
-97.14273
C     1.477000000     0.065000000     1.600000000
H     1.762000000    -0.407000000     2.537000000
C     0.418000000    -0.423000000     0.877000000
H    -0.166000000    -1.271000000     1.225000000
C     0.134000000     0.072000000    -0.409000000
C    -0.975000000    -0.446000000    -1.229000000
H    -1.506000000    -1.287000000    -0.778000000
H    -1.787000000     0.283000000    -1.274000000
H    -0.624000000    -0.710000000    -2.229000000
C     0.798000000     1.278000000    -0.784000000
H     0.486000000     1.771000000    -1.702000000
C     1.840000000     1.777000000     0.006000000
H     2.354000000     2.678000000    -0.319000000
C     2.285000000     1.131000000     1.150000000
C     3.481000000     1.659000000     1.924000000
O     4.267000000     2.483000000     1.505000000
O     3.776000000     1.008000000     2.915000000
