17
-87.00743
C     1.408000000     0.089000000     2.523000000
H     1.716000000    -0.473000000     3.401000000
C     0.594000000    -0.412000000     1.504000000
H     0.236000000    -1.438000000     1.507000000
C     0.089000000     0.327000000     0.492000000
C    -0.743000000    -0.166000000    -0.694000000
H    -0.650000000     0.406000000    -1.619000000
H    -0.390000000    -1.157000000    -0.988000000
H    -1.819000000    -0.114000000    -0.516000000
C     0.582000000     1.610000000     0.350000000
H     0.366000000     2.135000000    -0.578000000
C     1.398000000     2.207000000     1.268000000
H     1.766000000     3.194000000     1.002000000
C     1.833000000     1.481000000     2.475000000
C     2.672000000     2.158000000     3.422000000
O     3.118000000     3.301000000     3.226000000
O     2.951000000     1.594000000     4.477000000
