17
-94.79575
C    -2.202000000    -1.537000000     0.601000000
H    -3.097000000    -1.726000000     1.188000000
C    -1.589000000    -0.291000000     0.657000000
H    -1.973000000     0.559000000     1.215000000
C    -0.529000000     0.051000000    -0.182000000
C     0.091000000     1.395000000    -0.195000000
H     0.420000000     1.681000000    -1.196000000
H    -0.539000000     2.259000000     0.028000000
H     1.035000000     1.512000000     0.340000000
C     0.029000000    -0.924000000    -0.994000000
H     0.935000000    -0.684000000    -1.545000000
C    -0.513000000    -2.194000000    -0.966000000
H    -0.143000000    -2.933000000    -1.672000000
C    -1.636000000    -2.540000000    -0.213000000
C    -2.287000000    -3.959000000    -0.323000000
O    -1.744000000    -4.811000000    -1.028000000
O    -3.176000000    -4.305000000     0.399000000
