17
-95.55551
C     1.598000000     0.775000000     2.870000000
H     1.931000000     0.372000000     3.823000000
C     0.815000000     0.137000000     1.891000000
H     0.570000000    -0.905000000     2.078000000
C     0.513000000     0.669000000     0.687000000
C    -0.049000000    -0.237000000    -0.401000000
H     0.785000000    -0.719000000    -0.916000000
H    -0.720000000    -1.028000000    -0.061000000
H    -0.633000000     0.380000000    -1.086000000
C     0.900000000     2.001000000     0.436000000
H     0.683000000     2.412000000    -0.547000000
C     1.686000000     2.717000000     1.447000000
H     2.037000000     3.724000000     1.236000000
C     2.073000000     2.120000000     2.675000000
C     3.009000000     2.779000000     3.677000000
O     3.243000000     3.936000000     3.475000000
O     3.488000000     2.074000000     4.551000000
