17
-97.54166
C     0.428000000     1.038000000     2.497000000
H     0.257000000     0.982000000     3.569000000
C    -0.045000000     0.163000000     1.530000000
H    -0.590000000    -0.726000000     1.835000000
C     0.151000000     0.388000000     0.178000000
C    -0.322000000    -0.466000000    -0.956000000
H     0.492000000    -1.122000000    -1.271000000
H    -1.172000000    -1.077000000    -0.646000000
H    -0.734000000     0.145000000    -1.762000000
C     1.034000000     1.392000000    -0.198000000
H     1.208000000     1.660000000    -1.237000000
C     1.607000000     2.256000000     0.722000000
H     2.234000000     3.055000000     0.333000000
C     1.318000000     2.058000000     2.071000000
C     1.961000000     2.979000000     3.062000000
O     2.914000000     3.684000000     2.646000000
O     1.734000000     2.868000000     4.233000000
