17
-95.65168
C     2.421000000    -0.309000000     1.437000000
H     3.310000000    -0.930000000     1.519000000
C     1.347000000    -0.810000000     0.758000000
H     1.443000000    -1.784000000     0.285000000
C     0.167000000    -0.088000000     0.585000000
C    -0.939000000    -0.690000000    -0.159000000
H    -0.810000000    -1.773000000    -0.215000000
H    -1.919000000    -0.416000000     0.237000000
H    -0.870000000    -0.384000000    -1.205000000
C     0.146000000     1.272000000     1.090000000
H    -0.706000000     1.921000000     0.908000000
C     1.221000000     1.799000000     1.859000000
H     1.220000000     2.842000000     2.166000000
C     2.300000000     0.916000000     2.084000000
C     3.583000000     1.417000000     2.855000000
O     3.583000000     2.554000000     3.324000000
O     4.599000000     0.772000000     2.872000000
