17
-92.39403
C     2.505000000    -0.344000000     1.190000000
H     3.566000000    -0.531000000     1.045000000
C     1.583000000    -0.660000000     0.218000000
H     1.880000000    -1.171000000    -0.694000000
C     0.304000000    -0.159000000     0.271000000
C    -0.667000000    -0.607000000    -0.889000000
H    -0.494000000    -1.588000000    -1.338000000
H    -1.708000000    -0.639000000    -0.562000000
H    -0.646000000     0.092000000    -1.728000000
C    -0.100000000     0.814000000     1.225000000
H    -0.992000000     1.431000000     1.145000000
C     0.810000000     1.135000000     2.275000000
H     0.592000000     1.885000000     3.032000000
C     2.103000000     0.543000000     2.216000000
C     3.105000000     1.076000000     3.199000000
O     2.698000000     1.827000000     4.146000000
O     4.243000000     0.696000000     3.202000000
