17
-96.74086
C    -2.006000000    -1.865000000    -0.064000000
H    -2.990000000    -2.165000000     0.289000000
C    -1.465000000    -0.589000000     0.120000000
H    -1.934000000     0.081000000     0.837000000
C    -0.337000000    -0.151000000    -0.574000000
C     0.203000000     1.220000000    -0.309000000
H     0.117000000     1.912000000    -1.149000000
H    -0.288000000     1.669000000     0.557000000
H     1.260000000     1.132000000    -0.051000000
C     0.358000000    -1.123000000    -1.239000000
H     1.335000000    -0.874000000    -1.648000000
C    -0.083000000    -2.461000000    -1.345000000
H     0.442000000    -3.176000000    -1.974000000
C    -1.257000000    -2.866000000    -0.726000000
C    -1.813000000    -4.240000000    -0.826000000
O    -1.161000000    -4.967000000    -1.529000000
O    -2.725000000    -4.639000000    -0.100000000
