17
-95.80972
C     2.265000000    -0.284000000     1.490000000
H     3.131000000    -0.923000000     1.640000000
C     1.285000000    -0.728000000     0.553000000
H     1.463000000    -1.651000000     0.007000000
C     0.062000000     0.051000000     0.523000000
C    -1.056000000    -0.325000000    -0.368000000
H    -1.475000000    -1.285000000    -0.061000000
H    -1.833000000     0.442000000    -0.414000000
H    -0.710000000    -0.511000000    -1.387000000
C    -0.103000000     1.125000000     1.361000000
H    -0.995000000     1.741000000     1.274000000
C     0.942000000     1.587000000     2.208000000
H     0.788000000     2.454000000     2.846000000
C     2.130000000     0.795000000     2.364000000
C     3.135000000     1.169000000     3.407000000
O     2.951000000     2.040000000     4.240000000
O     4.145000000     0.462000000     3.542000000
