17
-94.57030
C     2.352000000    -0.315000000     1.312000000
H     3.306000000    -0.816000000     1.167000000
C     1.358000000    -0.649000000     0.385000000
H     1.603000000    -1.428000000    -0.332000000
C     0.121000000     0.089000000     0.353000000
C    -0.958000000    -0.250000000    -0.663000000
H    -0.540000000    -0.217000000    -1.671000000
H    -1.388000000    -1.221000000    -0.406000000
H    -1.835000000     0.397000000    -0.719000000
C    -0.057000000     1.134000000     1.239000000
H    -0.981000000     1.694000000     1.124000000
C     0.898000000     1.447000000     2.167000000
H     0.738000000     2.203000000     2.931000000
C     2.126000000     0.778000000     2.208000000
C     3.258000000     1.184000000     3.196000000
O     3.123000000     2.215000000     3.855000000
O     4.348000000     0.693000000     3.133000000
