17
-97.83529
C     2.124000000     0.053000000     1.608000000
H     2.906000000    -0.693000000     1.727000000
C     1.160000000    -0.161000000     0.656000000
H     1.254000000    -1.031000000     0.011000000
C     0.030000000     0.658000000     0.636000000
C    -1.128000000     0.112000000    -0.207000000
H    -0.782000000     0.166000000    -1.241000000
H    -1.437000000    -0.900000000     0.059000000
H    -1.941000000     0.837000000    -0.131000000
C    -0.059000000     1.780000000     1.429000000
H    -0.890000000     2.481000000     1.438000000
C     1.000000000     2.103000000     2.257000000
H     0.977000000     3.023000000     2.837000000
C     2.105000000     1.192000000     2.418000000
C     3.157000000     1.506000000     3.467000000
O     3.076000000     2.453000000     4.215000000
O     4.067000000     0.685000000     3.614000000
