17
-80.68042
C     2.937000000    -0.061000000     1.470000000
H     3.978000000    -0.289000000     1.254000000
C     2.051000000    -0.247000000     0.437000000
H     2.349000000    -0.622000000    -0.539000000
C     0.815000000     0.281000000     0.585000000
C    -0.185000000     0.066000000    -0.553000000
H    -1.186000000     0.232000000    -0.149000000
H    -0.078000000     0.802000000    -1.352000000
H    -0.069000000    -0.922000000    -1.003000000
C     0.442000000     0.974000000     1.702000000
H    -0.533000000     1.453000000     1.685000000
C     1.387000000     1.174000000     2.731000000
H     1.056000000     1.550000000     3.695000000
C     2.678000000     0.534000000     2.631000000
C     3.630000000     0.633000000     3.826000000
O     3.288000000     1.009000000     4.934000000
O     4.816000000     0.633000000     3.659000000
