17
-101.26566
C     2.579000000    -0.534000000     1.063000000
H     3.536000000    -1.051000000     1.040000000
C     1.630000000    -0.729000000     0.054000000
H     1.906000000    -1.372000000    -0.779000000
C     0.352000000    -0.130000000     0.197000000
C    -0.742000000    -0.383000000    -0.778000000
H    -0.946000000    -1.435000000    -0.987000000
H    -1.702000000    -0.021000000    -0.405000000
H    -0.562000000     0.153000000    -1.712000000
C     0.071000000     0.708000000     1.252000000
H    -0.845000000     1.292000000     1.294000000
C     1.039000000     0.954000000     2.230000000
H     0.781000000     1.495000000     3.137000000
C     2.324000000     0.359000000     2.127000000
C     3.430000000     0.601000000     3.149000000
O     3.219000000     1.064000000     4.307000000
O     4.538000000     0.388000000     2.735000000
