17
-98.27076
C     2.486000000    -0.417000000     1.120000000
H     3.496000000    -0.815000000     1.072000000
C     1.465000000    -0.932000000     0.305000000
H     1.643000000    -1.862000000    -0.228000000
C     0.201000000    -0.293000000     0.385000000
C    -0.857000000    -0.729000000    -0.621000000
H    -1.263000000    -1.727000000    -0.448000000
H    -1.803000000    -0.218000000    -0.429000000
H    -0.528000000    -0.657000000    -1.660000000
C    -0.058000000     0.845000000     1.143000000
H    -0.994000000     1.347000000     0.915000000
C     1.004000000     1.383000000     1.896000000
H     0.823000000     2.303000000     2.446000000
C     2.219000000     0.695000000     1.927000000
C     3.246000000     1.275000000     2.863000000
O     3.144000000     2.468000000     3.154000000
O     4.195000000     0.579000000     3.188000000
