17
-97.40135
C    -1.757000000    -2.280000000    -0.141000000
H    -2.732000000    -2.545000000     0.260000000
C    -1.389000000    -0.941000000     0.050000000
H    -2.070000000    -0.258000000     0.551000000
C    -0.065000000    -0.555000000    -0.276000000
C     0.466000000     0.908000000    -0.091000000
H    -0.249000000     1.665000000     0.239000000
H     1.349000000     0.782000000     0.540000000
H     0.866000000     1.254000000    -1.047000000
C     0.786000000    -1.489000000    -0.843000000
H     1.788000000    -1.122000000    -1.051000000
C     0.429000000    -2.790000000    -1.070000000
H     1.197000000    -3.463000000    -1.444000000
C    -0.879000000    -3.177000000    -0.734000000
C    -1.310000000    -4.635000000    -0.962000000
O    -0.491000000    -5.410000000    -1.350000000
O    -2.488000000    -4.986000000    -0.748000000
