17
-93.97541
C     2.136000000     0.711000000     1.121000000
H     3.109000000     0.448000000     1.527000000
C     1.238000000    -0.209000000     0.617000000
H     1.532000000    -1.254000000     0.673000000
C     0.018000000     0.245000000     0.128000000
C    -0.966000000    -0.631000000    -0.556000000
H    -1.162000000    -1.502000000     0.074000000
H    -1.829000000    -0.065000000    -0.914000000
H    -0.483000000    -1.138000000    -1.394000000
C    -0.355000000     1.573000000     0.219000000
H    -1.386000000     1.813000000    -0.028000000
C     0.562000000     2.504000000     0.783000000
H     0.226000000     3.538000000     0.780000000
C     1.804000000     2.057000000     1.221000000
C     2.782000000     3.135000000     1.634000000
O     2.609000000     4.309000000     1.415000000
O     3.889000000     2.764000000     1.986000000
