17
-90.75256
C     1.812000000     2.132000000    -1.734000000
H     2.755000000     2.144000000    -2.275000000
C     1.270000000     0.947000000    -1.282000000
H     1.791000000     0.026000000    -1.531000000
C    -0.012000000     0.913000000    -0.657000000
C    -0.535000000    -0.403000000    -0.307000000
H    -0.882000000    -0.464000000     0.727000000
H    -1.417000000    -0.609000000    -0.918000000
H     0.273000000    -1.119000000    -0.468000000
C    -0.615000000     2.086000000    -0.480000000
H    -1.564000000     2.028000000     0.047000000
C    -0.127000000     3.316000000    -0.929000000
H    -0.789000000     4.173000000    -0.837000000
C     1.145000000     3.315000000    -1.531000000
C     1.826000000     4.585000000    -1.854000000
O     1.253000000     5.662000000    -1.787000000
O     3.067000000     4.658000000    -2.006000000
