17
-93.39701
C     2.348000000     1.480000000     0.279000000
H     3.395000000     1.388000000     0.555000000
C     1.534000000     0.339000000     0.467000000
H     1.980000000    -0.607000000     0.764000000
C     0.130000000     0.384000000     0.184000000
C    -0.729000000    -0.844000000     0.290000000
H    -0.071000000    -1.715000000     0.324000000
H    -1.298000000    -0.837000000     1.222000000
H    -1.248000000    -0.943000000    -0.666000000
C    -0.421000000     1.555000000    -0.266000000
H    -1.459000000     1.531000000    -0.587000000
C     0.357000000     2.717000000    -0.310000000
H     0.031000000     3.558000000    -0.916000000
C     1.703000000     2.672000000    -0.052000000
C     2.468000000     3.953000000    -0.150000000
O     2.004000000     4.973000000    -0.680000000
O     3.600000000     4.043000000     0.303000000
