17
-89.97758
C    -1.816000000    -1.775000000    -0.066000000
H    -2.746000000    -2.143000000     0.359000000
C    -1.378000000    -0.471000000     0.209000000
H    -2.086000000     0.072000000     0.830000000
C    -0.164000000     0.010000000    -0.299000000
C     0.303000000     1.479000000    -0.032000000
H     1.273000000     1.567000000     0.462000000
H     0.204000000     2.148000000    -0.889000000
H    -0.390000000     1.937000000     0.677000000
C     0.531000000    -0.798000000    -1.237000000
H     1.437000000    -0.405000000    -1.691000000
C     0.108000000    -2.135000000    -1.366000000
H     0.787000000    -2.780000000    -1.919000000
C    -1.026000000    -2.673000000    -0.762000000
C    -1.293000000    -4.152000000    -0.856000000
O    -0.371000000    -4.932000000    -1.090000000
O    -2.363000000    -4.607000000    -0.674000000
