17
-87.75831
C     2.616000000     1.184000000     0.704000000
H     3.637000000     0.935000000     0.980000000
C     1.731000000     0.190000000     0.520000000
H     2.077000000    -0.798000000     0.815000000
C     0.579000000     0.396000000    -0.180000000
C    -0.401000000    -0.726000000    -0.517000000
H    -0.576000000    -1.555000000     0.173000000
H    -1.354000000    -0.357000000    -0.902000000
H     0.134000000    -1.313000000    -1.266000000
C     0.178000000     1.664000000    -0.499000000
H    -0.838000000     1.791000000    -0.864000000
C     1.061000000     2.700000000    -0.296000000
H     0.832000000     3.704000000    -0.646000000
C     2.341000000     2.431000000     0.233000000
C     3.390000000     3.465000000     0.282000000
O     3.440000000     4.476000000    -0.452000000
O     4.401000000     3.237000000     0.978000000
