17
-94.07571
C     2.276000000     2.029000000     1.549000000
H     2.696000000     2.461000000     2.453000000
C     1.230000000     1.134000000     1.565000000
H     0.870000000     0.748000000     2.516000000
C     0.645000000     0.626000000     0.386000000
C    -0.592000000    -0.227000000     0.556000000
H    -0.916000000    -0.423000000     1.580000000
H    -1.294000000     0.339000000    -0.060000000
H    -0.556000000    -1.190000000     0.042000000
C     1.226000000     0.957000000    -0.783000000
H     0.792000000     0.517000000    -1.677000000
C     2.331000000     1.804000000    -0.841000000
H     2.710000000     2.188000000    -1.785000000
C     2.794000000     2.453000000     0.285000000
C     3.773000000     3.605000000     0.202000000
O     3.986000000     4.237000000    -0.829000000
O     4.402000000     3.833000000     1.196000000
