17
-99.05818
C     2.483000000     2.456000000     1.204000000
H     2.840000000     3.001000000     2.075000000
C     1.300000000     1.772000000     1.317000000
H     0.739000000     1.724000000     2.247000000
C     0.713000000     1.106000000     0.291000000
C    -0.564000000     0.344000000     0.382000000
H    -1.011000000     0.198000000    -0.603000000
H    -0.359000000    -0.689000000     0.671000000
H    -1.304000000     0.782000000     1.055000000
C     1.399000000     1.130000000    -0.942000000
H     0.973000000     0.592000000    -1.785000000
C     2.627000000     1.715000000    -1.122000000
H     3.143000000     1.753000000    -2.078000000
C     3.165000000     2.432000000    -0.025000000
C     4.405000000     3.338000000    -0.104000000
O     4.613000000     3.793000000    -1.211000000
O     5.031000000     3.639000000     0.888000000
