17
-86.03409
C     2.196000000     1.827000000     1.167000000
H     2.823000000     1.745000000     2.051000000
C     1.419000000     0.697000000     0.833000000
H     1.260000000    -0.143000000     1.505000000
C     0.500000000     0.874000000    -0.216000000
C    -0.539000000    -0.275000000    -0.375000000
H    -0.204000000    -0.987000000    -1.132000000
H    -0.551000000    -0.736000000     0.614000000
H    -1.454000000     0.255000000    -0.647000000
C     0.616000000     2.026000000    -1.017000000
H    -0.099000000     2.222000000    -1.811000000
C     1.503000000     3.051000000    -0.740000000
H     1.697000000     3.912000000    -1.375000000
C     2.328000000     2.988000000     0.383000000
C     3.268000000     4.152000000     0.771000000
O     3.312000000     5.234000000     0.217000000
O     4.194000000     4.005000000     1.581000000
