17
-82.72315
C     0.824000000     1.712000000     1.252000000
H     0.851000000     2.041000000     2.288000000
C     0.245000000     0.512000000     1.052000000
H    -0.158000000    -0.039000000     1.898000000
C     0.125000000     0.004000000    -0.222000000
C    -0.392000000    -1.454000000    -0.372000000
H    -1.031000000    -1.502000000    -1.256000000
H     0.467000000    -2.106000000    -0.541000000
H    -0.964000000    -1.756000000     0.508000000
C     0.678000000     0.678000000    -1.262000000
H     0.685000000     0.215000000    -2.246000000
C     1.326000000     1.889000000    -1.106000000
H     1.681000000     2.460000000    -1.960000000
C     1.497000000     2.365000000     0.182000000
C     2.346000000     3.619000000     0.363000000
O     2.941000000     4.166000000    -0.497000000
O     2.618000000     4.019000000     1.474000000
