17
-98.34130
C    -0.400000000     2.294000000     0.842000000
H    -0.883000000     2.899000000     1.605000000
C    -0.745000000     0.907000000     0.826000000
H    -1.471000000     0.529000000     1.541000000
C     0.013000000     0.075000000    -0.032000000
C    -0.156000000    -1.378000000     0.058000000
H     0.788000000    -1.822000000     0.382000000
H    -0.812000000    -1.529000000     0.918000000
H    -0.595000000    -1.830000000    -0.834000000
C     0.920000000     0.618000000    -0.937000000
H     1.540000000    -0.027000000    -1.554000000
C     1.170000000     1.967000000    -0.981000000
H     1.835000000     2.338000000    -1.757000000
C     0.445000000     2.836000000    -0.119000000
C     0.700000000     4.330000000    -0.179000000
O     1.847000000     4.655000000    -0.480000000
O    -0.109000000     5.182000000     0.203000000
