17
-98.60746
C     0.130000000     2.525000000     0.158000000
H    -0.116000000     3.362000000     0.807000000
C    -0.310000000     1.313000000     0.520000000
H    -0.819000000     1.243000000     1.478000000
C    -0.051000000     0.161000000    -0.285000000
C    -0.673000000    -1.180000000     0.028000000
H    -1.377000000    -1.554000000    -0.719000000
H     0.069000000    -1.981000000     0.038000000
H    -1.201000000    -1.096000000     0.980000000
C     0.663000000     0.274000000    -1.441000000
H     0.775000000    -0.587000000    -2.095000000
C     1.110000000     1.514000000    -1.824000000
H     1.723000000     1.647000000    -2.712000000
C     0.867000000     2.636000000    -1.007000000
C     1.317000000     4.025000000    -1.413000000
O     1.980000000     4.091000000    -2.423000000
O     0.998000000     5.041000000    -0.748000000
