17
-86.30364
C     0.484000000     3.063000000     1.063000000
H     0.357000000     3.734000000     1.908000000
C     0.127000000     1.712000000     0.984000000
H    -0.506000000     1.307000000     1.769000000
C     0.327000000     0.869000000    -0.130000000
C    -0.100000000    -0.594000000    -0.078000000
H     0.693000000    -1.278000000     0.229000000
H    -0.948000000    -0.678000000     0.606000000
H    -0.578000000    -0.889000000    -1.015000000
C     1.023000000     1.496000000    -1.248000000
H     1.265000000     0.935000000    -2.147000000
C     1.336000000     2.849000000    -1.106000000
H     1.841000000     3.288000000    -1.963000000
C     1.101000000     3.662000000    -0.026000000
C     1.344000000     5.113000000     0.099000000
O     1.505000000     5.775000000    -0.876000000
O     1.831000000     5.467000000     1.199000000
