17
-96.96610
C     0.531000000     2.245000000     1.223000000
H     0.288000000     2.921000000     2.039000000
C    -0.065000000     0.990000000     1.249000000
H    -0.642000000     0.667000000     2.111000000
C     0.017000000     0.157000000     0.137000000
C    -0.571000000    -1.261000000     0.186000000
H     0.210000000    -2.002000000     0.373000000
H    -1.362000000    -1.359000000     0.932000000
H    -0.952000000    -1.509000000    -0.807000000
C     0.760000000     0.589000000    -0.977000000
H     0.808000000    -0.059000000    -1.848000000
C     1.562000000     1.711000000    -0.889000000
H     2.330000000     1.910000000    -1.632000000
C     1.379000000     2.624000000     0.153000000
C     2.042000000     3.972000000     0.059000000
O     2.483000000     4.361000000    -0.992000000
O     2.105000000     4.692000000     1.030000000
