17
-95.69839
C     0.113000000     2.197000000     1.713000000
H     0.220000000     2.658000000     2.692000000
C    -0.506000000     0.971000000     1.453000000
H    -0.963000000     0.425000000     2.274000000
C    -0.401000000     0.487000000     0.145000000
C    -0.927000000    -0.828000000    -0.291000000
H    -1.822000000    -0.606000000    -0.875000000
H    -0.198000000    -1.269000000    -0.974000000
H    -1.307000000    -1.464000000     0.512000000
C     0.138000000     1.299000000    -0.835000000
H     0.189000000     0.947000000    -1.862000000
C     0.512000000     2.605000000    -0.637000000
H     0.750000000     3.253000000    -1.477000000
C     0.516000000     3.077000000     0.661000000
C     1.009000000     4.505000000     0.978000000
O     1.306000000     5.158000000     0.016000000
O     1.028000000     4.883000000     2.106000000
