17
-93.72944
C     0.598000000     3.105000000     1.055000000
H     0.583000000     3.661000000     1.988000000
C     0.215000000     1.762000000     1.138000000
H    -0.109000000     1.413000000     2.115000000
C     0.354000000     0.858000000     0.053000000
C     0.012000000    -0.618000000     0.198000000
H    -1.007000000    -0.641000000     0.588000000
H    -0.084000000    -1.033000000    -0.808000000
H     0.716000000    -1.247000000     0.748000000
C     0.949000000     1.393000000    -1.128000000
H     1.095000000     0.758000000    -1.999000000
C     1.136000000     2.787000000    -1.235000000
H     1.420000000     3.127000000    -2.228000000
C     1.007000000     3.672000000    -0.142000000
C     1.503000000     5.088000000    -0.193000000
O     1.811000000     5.577000000    -1.242000000
O     1.543000000     5.737000000     0.816000000
