17
-93.63397
C    -0.125000000     2.993000000    -0.027000000
H    -0.705000000     3.747000000    -0.552000000
C    -0.406000000     1.669000000    -0.322000000
H    -1.191000000     1.349000000    -1.003000000
C     0.310000000     0.593000000     0.295000000
C     0.065000000    -0.837000000    -0.003000000
H     0.714000000    -1.527000000     0.541000000
H    -0.997000000    -0.991000000     0.203000000
H     0.144000000    -0.947000000    -1.086000000
C     1.453000000     0.958000000     1.009000000
H     2.112000000     0.171000000     1.367000000
C     1.779000000     2.304000000     1.244000000
H     2.564000000     2.463000000     1.979000000
C     0.984000000     3.350000000     0.854000000
C     1.288000000     4.766000000     1.227000000
O     2.263000000     5.030000000     1.890000000
O     0.568000000     5.700000000     0.873000000
