17
-92.90533
C     0.348000000     2.312000000    -1.140000000
H     0.725000000     2.930000000    -1.951000000
C     0.391000000     0.890000000    -1.164000000
H     0.911000000     0.365000000    -1.962000000
C    -0.075000000     0.207000000     0.003000000
C    -0.019000000    -1.295000000     0.023000000
H    -0.543000000    -1.669000000     0.905000000
H    -0.488000000    -1.824000000    -0.810000000
H     0.953000000    -1.782000000     0.123000000
C    -0.577000000     0.978000000     1.058000000
H    -0.945000000     0.405000000     1.904000000
C    -0.593000000     2.364000000     1.022000000
H    -0.989000000     2.871000000     1.898000000
C    -0.159000000     3.073000000    -0.107000000
C    -0.084000000     4.489000000    -0.108000000
O    -1.045000000     5.163000000     0.210000000
O     0.933000000     5.027000000    -0.586000000
