17
-91.67678
C     0.370000000     2.651000000    -1.400000000
H     0.802000000     3.240000000    -2.205000000
C     0.311000000     1.253000000    -1.441000000
H     0.638000000     0.637000000    -2.275000000
C    -0.219000000     0.595000000    -0.353000000
C    -0.181000000    -0.930000000    -0.413000000
H     0.366000000    -1.220000000     0.487000000
H    -1.197000000    -1.316000000    -0.304000000
H     0.453000000    -1.356000000    -1.193000000
C    -0.632000000     1.285000000     0.733000000
H    -0.934000000     0.800000000     1.658000000
C    -0.758000000     2.617000000     0.688000000
H    -1.260000000     3.140000000     1.499000000
C    -0.310000000     3.363000000    -0.418000000
C    -0.335000000     4.883000000    -0.463000000
O    -1.268000000     5.453000000     0.040000000
O     0.730000000     5.435000000    -0.736000000
