17
-95.48627
C     2.141000000     2.352000000    -0.267000000
H     3.168000000     2.506000000     0.055000000
C     1.659000000     1.097000000     0.008000000
H     2.323000000     0.374000000     0.475000000
C     0.392000000     0.783000000    -0.368000000
C    -0.172000000    -0.591000000    -0.119000000
H    -1.126000000    -0.694000000    -0.640000000
H     0.529000000    -1.334000000    -0.505000000
H    -0.444000000    -0.731000000     0.929000000
C    -0.367000000     1.722000000    -1.064000000
H    -1.387000000     1.521000000    -1.379000000
C     0.046000000     3.042000000    -1.178000000
H    -0.639000000     3.814000000    -1.518000000
C     1.321000000     3.361000000    -0.833000000
C     1.751000000     4.765000000    -1.066000000
O     1.007000000     5.712000000    -0.653000000
O     2.904000000     5.051000000    -1.425000000
