17
-97.61413
C     1.589000000     1.941000000    -1.075000000
H     2.581000000     1.989000000    -1.516000000
C     1.121000000     0.628000000    -0.968000000
H     1.678000000    -0.208000000    -1.384000000
C    -0.105000000     0.375000000    -0.397000000
C    -0.612000000    -1.021000000    -0.334000000
H    -1.364000000    -1.219000000    -1.101000000
H     0.230000000    -1.712000000    -0.416000000
H    -1.165000000    -1.239000000     0.582000000
C    -0.847000000     1.479000000    -0.019000000
H    -1.784000000     1.281000000     0.495000000
C    -0.450000000     2.803000000    -0.213000000
H    -1.111000000     3.611000000     0.090000000
C     0.823000000     3.064000000    -0.729000000
C     1.408000000     4.438000000    -0.876000000
O     0.781000000     5.390000000    -0.495000000
O     2.564000000     4.522000000    -1.221000000
