17
-97.61428
C     2.301000000     1.800000000     0.244000000
H     3.296000000     2.025000000     0.620000000
C     1.731000000     0.538000000     0.489000000
H     2.292000000    -0.212000000     1.040000000
C     0.468000000     0.238000000    -0.106000000
C    -0.087000000    -1.193000000    -0.077000000
H    -0.354000000    -1.584000000    -1.061000000
H     0.619000000    -1.886000000     0.385000000
H    -0.980000000    -1.097000000     0.542000000
C    -0.262000000     1.265000000    -0.725000000
H    -1.194000000     0.988000000    -1.213000000
C     0.339000000     2.556000000    -0.948000000
H    -0.231000000     3.373000000    -1.384000000
C     1.580000000     2.823000000    -0.367000000
C     2.083000000     4.262000000    -0.130000000
O     1.684000000     5.094000000    -0.952000000
O     3.012000000     4.505000000     0.650000000
