17
-96.53556
C     1.559000000     2.065000000    -0.004000000
H     2.216000000     2.634000000     0.648000000
C     1.185000000     0.759000000     0.368000000
H     1.632000000     0.279000000     1.235000000
C     0.235000000     0.069000000    -0.363000000
C    -0.088000000    -1.352000000     0.082000000
H    -1.080000000    -1.667000000    -0.249000000
H     0.721000000    -1.983000000    -0.292000000
H    -0.220000000    -1.281000000     1.163000000
C    -0.299000000     0.619000000    -1.512000000
H    -1.044000000     0.095000000    -2.106000000
C     0.044000000     1.940000000    -1.969000000
H    -0.527000000     2.349000000    -2.799000000
C     0.946000000     2.635000000    -1.132000000
C     1.267000000     4.085000000    -1.396000000
O     0.899000000     4.651000000    -2.422000000
O     1.843000000     4.733000000    -0.548000000
