17
-96.56634
C     1.684000000     2.745000000     1.533000000
H     2.169000000     2.818000000     2.503000000
C     1.059000000     1.565000000     1.190000000
H     1.046000000     0.694000000     1.840000000
C     0.380000000     1.462000000     0.014000000
C    -0.443000000     0.209000000    -0.219000000
H     0.290000000    -0.548000000    -0.506000000
H    -1.091000000    -0.109000000     0.601000000
H    -1.103000000     0.408000000    -1.066000000
C     0.343000000     2.486000000    -0.874000000
H    -0.221000000     2.406000000    -1.800000000
C     0.964000000     3.710000000    -0.613000000
H     0.968000000     4.506000000    -1.354000000
C     1.620000000     3.882000000     0.640000000
C     2.209000000     5.185000000     1.067000000
O     1.758000000     6.209000000     0.615000000
O     2.999000000     5.213000000     2.039000000
