17
-95.04420
C     1.678000000     1.799000000     0.813000000
H     2.540000000     1.891000000     1.469000000
C     1.118000000     0.495000000     0.659000000
H     1.468000000    -0.298000000     1.314000000
C     0.192000000     0.269000000    -0.320000000
C    -0.253000000    -1.130000000    -0.595000000
H    -0.878000000    -1.486000000     0.227000000
H    -1.034000000    -1.183000000    -1.357000000
H     0.556000000    -1.839000000    -0.784000000
C    -0.324000000     1.370000000    -1.022000000
H    -1.144000000     1.230000000    -1.721000000
C     0.190000000     2.665000000    -0.833000000
H    -0.070000000     3.515000000    -1.458000000
C     1.231000000     2.855000000     0.090000000
C     1.903000000     4.164000000     0.268000000
O     1.504000000     5.168000000    -0.286000000
O     2.997000000     4.293000000     0.872000000
