17
-89.94578
C     0.243000000    -2.683000000    -0.371000000
H    -0.211000000    -3.634000000    -0.637000000
C    -0.399000000    -1.447000000    -0.708000000
H    -1.316000000    -1.489000000    -1.290000000
C     0.142000000    -0.319000000    -0.175000000
C    -0.389000000     0.991000000    -0.662000000
H    -0.073000000     1.110000000    -1.701000000
H    -1.480000000     0.996000000    -0.672000000
H    -0.096000000     1.848000000    -0.051000000
C     1.174000000    -0.324000000     0.759000000
H     1.584000000     0.617000000     1.115000000
C     1.734000000    -1.525000000     1.158000000
H     2.560000000    -1.465000000     1.862000000
C     1.323000000    -2.741000000     0.561000000
C     1.909000000    -3.999000000     1.108000000
O     2.778000000    -4.087000000     1.972000000
O     1.651000000    -5.071000000     0.589000000
