17
-87.18157
C     1.371000000     2.418000000     0.417000000
H     2.128000000     2.936000000     1.001000000
C     0.911000000     1.101000000     0.654000000
H     1.208000000     0.655000000     1.599000000
C     0.117000000     0.507000000    -0.279000000
C    -0.443000000    -0.895000000    -0.060000000
H     0.308000000    -1.371000000     0.575000000
H    -1.397000000    -0.785000000     0.461000000
H    -0.494000000    -1.444000000    -1.002000000
C    -0.184000000     1.141000000    -1.454000000
H    -0.761000000     0.629000000    -2.220000000
C     0.207000000     2.416000000    -1.681000000
H    -0.114000000     2.952000000    -2.571000000
C     0.913000000     3.085000000    -0.729000000
C     1.297000000     4.584000000    -0.944000000
O     0.771000000     5.205000000    -1.856000000
O     1.805000000     5.165000000    -0.072000000
