17
-98.29818
C     1.860000000     2.707000000     0.168000000
H     2.625000000     3.054000000     0.858000000
C     1.088000000     1.531000000     0.455000000
H     1.214000000     0.980000000     1.384000000
C     0.229000000     0.901000000    -0.461000000
C    -0.482000000    -0.430000000    -0.058000000
H    -1.308000000    -0.175000000     0.610000000
H    -0.853000000    -0.870000000    -0.986000000
H     0.113000000    -1.154000000     0.503000000
C     0.068000000     1.459000000    -1.723000000
H    -0.523000000     0.999000000    -2.510000000
C     0.764000000     2.600000000    -2.042000000
H     0.754000000     2.977000000    -3.061000000
C     1.648000000     3.236000000    -1.104000000
C     2.359000000     4.456000000    -1.567000000
O     1.979000000     5.070000000    -2.592000000
O     3.258000000     4.953000000    -0.863000000
