17
-89.75173
C    -1.969000000    -1.519000000     0.277000000
H    -3.000000000    -1.501000000     0.620000000
C    -1.307000000    -0.302000000     0.244000000
H    -1.788000000     0.619000000     0.563000000
C     0.026000000    -0.192000000    -0.229000000
C     0.550000000     1.196000000    -0.632000000
H     1.641000000     1.206000000    -0.668000000
H     0.271000000     1.454000000    -1.656000000
H     0.263000000     2.001000000     0.048000000
C     0.702000000    -1.342000000    -0.701000000
H     1.735000000    -1.248000000    -1.026000000
C     0.104000000    -2.546000000    -0.457000000
H     0.671000000    -3.443000000    -0.690000000
C    -1.199000000    -2.679000000     0.032000000
C    -1.749000000    -4.036000000     0.435000000
O    -1.086000000    -5.050000000     0.409000000
O    -2.876000000    -4.154000000     0.813000000
