17
-93.97604
C     2.247000000     1.463000000     1.138000000
H     2.900000000     1.729000000     1.966000000
C     1.475000000     0.335000000     1.246000000
H     1.494000000    -0.308000000     2.122000000
C     0.653000000    -0.097000000     0.199000000
C    -0.179000000    -1.311000000     0.311000000
H    -0.577000000    -1.665000000    -0.642000000
H     0.339000000    -2.139000000     0.800000000
H    -1.161000000    -1.185000000     0.771000000
C     0.472000000     0.781000000    -0.842000000
H    -0.231000000     0.495000000    -1.620000000
C     1.197000000     2.001000000    -0.986000000
H     1.007000000     2.665000000    -1.825000000
C     2.097000000     2.321000000     0.012000000
C     3.011000000     3.495000000    -0.145000000
O     2.769000000     4.403000000    -0.926000000
O     3.929000000     3.684000000     0.626000000
