17
-92.36059
C     1.568000000     1.714000000     0.995000000
H     2.234000000     2.016000000     1.799000000
C     0.883000000     0.442000000     0.911000000
H     1.021000000    -0.249000000     1.738000000
C     0.045000000     0.100000000    -0.130000000
C    -0.531000000    -1.245000000    -0.209000000
H     0.170000000    -2.078000000    -0.121000000
H    -1.327000000    -1.265000000     0.540000000
H    -0.976000000    -1.513000000    -1.169000000
C    -0.172000000     1.045000000    -1.127000000
H    -0.822000000     0.909000000    -1.988000000
C     0.442000000     2.287000000    -1.079000000
H     0.246000000     2.986000000    -1.889000000
C     1.352000000     2.629000000    -0.051000000
C     2.139000000     3.916000000    -0.163000000
O     1.966000000     4.756000000    -1.090000000
O     2.857000000     4.268000000     0.711000000
