17
-90.52290
C     0.487000000     2.111000000     1.458000000
H     0.570000000     2.542000000     2.453000000
C     0.377000000     0.713000000     1.423000000
H     0.354000000     0.210000000     2.387000000
C     0.280000000     0.092000000     0.135000000
C     0.094000000    -1.442000000     0.073000000
H    -0.519000000    -1.691000000    -0.796000000
H     1.037000000    -1.990000000     0.023000000
H    -0.381000000    -1.916000000     0.933000000
C     0.265000000     0.824000000    -1.045000000
H     0.202000000     0.278000000    -1.983000000
C     0.418000000     2.191000000    -0.954000000
H     0.425000000     2.859000000    -1.811000000
C     0.558000000     2.849000000     0.280000000
C     0.647000000     4.315000000     0.324000000
O     0.778000000     4.829000000    -0.731000000
O     0.644000000     4.931000000     1.342000000
