17
-95.73064
C     1.616000000     2.770000000     1.132000000
H     2.056000000     3.247000000     2.004000000
C     1.155000000     1.432000000     1.244000000
H     1.258000000     0.831000000     2.144000000
C     0.657000000     0.777000000     0.125000000
C     0.387000000    -0.708000000     0.223000000
H    -0.521000000    -0.974000000    -0.324000000
H     1.237000000    -1.142000000    -0.307000000
H     0.380000000    -1.052000000     1.259000000
C     0.509000000     1.523000000    -1.052000000
H     0.085000000     1.129000000    -1.972000000
C     0.832000000     2.863000000    -1.087000000
H     0.629000000     3.355000000    -2.035000000
C     1.443000000     3.544000000    -0.029000000
C     1.832000000     5.046000000    -0.126000000
O     1.192000000     5.688000000    -0.936000000
O     2.725000000     5.583000000     0.470000000
