17
-95.03627
C     1.479000000     1.602000000     1.223000000
H     2.140000000     1.878000000     2.041000000
C     0.899000000     0.340000000     1.165000000
H     1.024000000    -0.345000000     2.000000000
C     0.027000000    -0.009000000     0.133000000
C    -0.582000000    -1.352000000     0.085000000
H    -1.652000000    -1.173000000     0.211000000
H    -0.362000000    -1.855000000    -0.859000000
H    -0.112000000    -2.034000000     0.796000000
C    -0.195000000     0.828000000    -0.934000000
H    -0.664000000     0.569000000    -1.879000000
C     0.295000000     2.166000000    -0.812000000
H     0.125000000     2.910000000    -1.587000000
C     1.263000000     2.508000000     0.204000000
C     1.829000000     3.891000000     0.159000000
O     1.408000000     4.768000000    -0.591000000
O     2.827000000     4.146000000     0.829000000
