17
-96.57407
C     0.795000000     2.023000000     1.541000000
H     1.114000000     2.329000000     2.533000000
C     0.409000000     0.706000000     1.320000000
H     0.459000000     0.053000000     2.188000000
C    -0.024000000     0.330000000     0.036000000
C    -0.561000000    -1.112000000    -0.173000000
H    -0.490000000    -1.263000000    -1.252000000
H     0.142000000    -1.799000000     0.302000000
H    -1.536000000    -1.157000000     0.317000000
C    -0.065000000     1.298000000    -1.022000000
H    -0.420000000     0.948000000    -1.988000000
C     0.216000000     2.613000000    -0.740000000
H     0.095000000     3.368000000    -1.512000000
C     0.730000000     2.987000000     0.529000000
C     0.998000000     4.446000000     0.770000000
O     1.186000000     5.203000000    -0.130000000
O     1.039000000     4.787000000     1.934000000
