17
-88.76594
C     0.219000000     2.708000000     1.003000000
H    -0.430000000     3.528000000     1.299000000
C    -0.376000000     1.470000000     0.746000000
H    -1.393000000     1.360000000     1.113000000
C     0.297000000     0.418000000     0.219000000
C    -0.216000000    -0.961000000     0.109000000
H    -1.301000000    -0.888000000     0.009000000
H     0.141000000    -1.512000000    -0.763000000
H     0.112000000    -1.534000000     0.979000000
C     1.623000000     0.646000000    -0.127000000
H     2.165000000    -0.225000000    -0.486000000
C     2.264000000     1.854000000     0.069000000
H     3.294000000     1.879000000    -0.277000000
C     1.558000000     2.833000000     0.738000000
C     2.127000000     4.239000000     0.792000000
O     3.298000000     4.522000000     0.594000000
O     1.386000000     5.156000000     1.030000000
