17
-93.04900
C     1.419000000     1.971000000     1.140000000
H     1.722000000     2.270000000     2.141000000
C     0.793000000     0.734000000     0.953000000
H     0.665000000     0.095000000     1.823000000
C     0.358000000     0.352000000    -0.319000000
C    -0.341000000    -0.948000000    -0.445000000
H     0.371000000    -1.705000000    -0.111000000
H    -1.276000000    -1.085000000     0.103000000
H    -0.565000000    -1.270000000    -1.464000000
C     0.553000000     1.244000000    -1.350000000
H     0.229000000     0.926000000    -2.338000000
C     1.183000000     2.451000000    -1.203000000
H     1.396000000     3.050000000    -2.084000000
C     1.541000000     2.884000000     0.111000000
C     2.102000000     4.267000000     0.425000000
O     2.112000000     5.104000000    -0.406000000
O     2.521000000     4.560000000     1.531000000
