17
-99.67797
C     1.627000000     1.831000000     1.611000000
H     2.026000000     2.106000000     2.584000000
C     0.841000000     0.678000000     1.421000000
H     0.552000000     0.050000000     2.259000000
C     0.392000000     0.377000000     0.126000000
C    -0.597000000    -0.754000000    -0.191000000
H    -1.512000000    -0.313000000    -0.593000000
H    -0.131000000    -1.346000000    -0.981000000
H    -0.744000000    -1.449000000     0.638000000
C     0.642000000     1.240000000    -0.938000000
H     0.167000000     1.102000000    -1.906000000
C     1.510000000     2.332000000    -0.739000000
H     1.812000000     2.911000000    -1.608000000
C     2.062000000     2.589000000     0.523000000
C     2.846000000     3.850000000     0.698000000
O     3.033000000     4.661000000    -0.244000000
O     3.239000000     4.192000000     1.815000000
