17
-94.68511
C    -1.378000000     2.194000000     0.304000000
H    -2.310000000     2.750000000     0.364000000
C    -1.286000000     0.825000000     0.184000000
H    -2.160000000     0.200000000     0.022000000
C    -0.066000000     0.175000000     0.026000000
C    -0.062000000    -1.311000000    -0.219000000
H    -1.013000000    -1.711000000     0.139000000
H    -0.161000000    -1.529000000    -1.284000000
H     0.795000000    -1.840000000     0.203000000
C     1.096000000     0.924000000     0.014000000
H     2.036000000     0.440000000    -0.238000000
C     1.092000000     2.312000000     0.135000000
H     1.945000000     2.985000000     0.158000000
C    -0.133000000     2.916000000     0.297000000
C    -0.172000000     4.420000000     0.653000000
O     0.793000000     4.929000000     1.214000000
O    -1.155000000     5.140000000     0.532000000
