17
-87.02974
C    -1.241000000     2.641000000     0.857000000
H    -2.100000000     3.207000000     1.207000000
C    -1.301000000     1.250000000     0.779000000
H    -2.271000000     0.779000000     0.919000000
C    -0.138000000     0.562000000     0.308000000
C    -0.107000000    -0.954000000    -0.113000000
H     0.739000000    -1.561000000     0.216000000
H    -1.073000000    -1.441000000     0.036000000
H    -0.022000000    -0.951000000    -1.202000000
C     1.033000000     1.264000000     0.016000000
H     1.826000000     0.658000000    -0.415000000
C     1.077000000     2.691000000     0.286000000
H     2.000000000     3.232000000     0.093000000
C    -0.069000000     3.392000000     0.645000000
C    -0.006000000     4.881000000     0.948000000
O     0.984000000     5.453000000     0.527000000
O    -0.776000000     5.499000000     1.588000000
