17
-88.76108
C    -0.857000000     2.182000000    -0.250000000
H    -1.724000000     2.836000000    -0.193000000
C    -0.973000000     0.790000000    -0.023000000
H    -1.949000000     0.382000000     0.226000000
C     0.177000000     0.033000000     0.150000000
C     0.101000000    -1.440000000     0.507000000
H     1.076000000    -1.884000000     0.294000000
H    -0.088000000    -1.430000000     1.582000000
H    -0.705000000    -2.029000000     0.065000000
C     1.475000000     0.595000000     0.031000000
H     2.388000000     0.005000000     0.033000000
C     1.584000000     1.936000000    -0.355000000
H     2.566000000     2.351000000    -0.568000000
C     0.462000000     2.723000000    -0.476000000
C     0.626000000     4.206000000    -0.739000000
O     1.685000000     4.544000000    -1.076000000
O    -0.348000000     4.883000000    -0.761000000
