17
-92.75698
C    -1.198000000     2.755000000    -1.829000000
H    -1.938000000     3.147000000    -2.523000000
C    -1.342000000     1.456000000    -1.359000000
H    -2.226000000     0.911000000    -1.682000000
C    -0.440000000     0.953000000    -0.409000000
C    -0.553000000    -0.449000000     0.283000000
H     0.149000000    -1.045000000    -0.303000000
H    -0.212000000    -0.339000000     1.315000000
H    -1.567000000    -0.816000000     0.112000000
C     0.622000000     1.701000000    -0.013000000
H     1.335000000     1.240000000     0.665000000
C     0.784000000     3.013000000    -0.510000000
H     1.723000000     3.533000000    -0.342000000
C    -0.063000000     3.458000000    -1.553000000
C     0.257000000     4.795000000    -2.232000000
O     1.402000000     5.174000000    -2.109000000
O    -0.535000000     5.455000000    -2.889000000
