17
-101.31699
C    -0.758000000     2.135000000     0.545000000
H    -1.696000000     2.641000000     0.756000000
C    -0.783000000     0.752000000     0.435000000
H    -1.717000000     0.239000000     0.650000000
C     0.429000000     0.078000000     0.155000000
C     0.428000000    -1.408000000    -0.031000000
H     1.214000000    -2.010000000     0.430000000
H    -0.508000000    -1.878000000     0.279000000
H     0.555000000    -1.646000000    -1.090000000
C     1.596000000     0.764000000    -0.165000000
H     2.484000000     0.231000000    -0.497000000
C     1.606000000     2.149000000    -0.035000000
H     2.524000000     2.672000000    -0.294000000
C     0.467000000     2.806000000     0.369000000
C     0.456000000     4.301000000     0.609000000
O     1.479000000     4.977000000     0.726000000
O    -0.643000000     4.874000000     0.710000000
