17
-95.58713
C    -1.248000000     1.910000000    -1.342000000
H    -2.173000000     2.358000000    -1.696000000
C    -1.300000000     0.680000000    -0.554000000
H    -2.251000000     0.232000000    -0.278000000
C    -0.057000000     0.019000000    -0.345000000
C    -0.043000000    -1.417000000     0.234000000
H     0.889000000    -1.985000000     0.190000000
H    -0.203000000    -1.358000000     1.312000000
H    -0.837000000    -2.036000000    -0.188000000
C     1.190000000     0.610000000    -0.661000000
H     2.100000000     0.065000000    -0.424000000
C     1.193000000     1.928000000    -1.149000000
H     2.119000000     2.473000000    -1.316000000
C    -0.019000000     2.561000000    -1.522000000
C    -0.036000000     3.847000000    -2.313000000
O     1.000000000     4.448000000    -2.558000000
O    -1.063000000     4.209000000    -2.904000000
