17
-94.76335
C    -1.145000000     2.244000000    -1.612000000
H    -1.975000000     2.945000000    -1.616000000
C    -1.305000000     1.131000000    -0.753000000
H    -2.246000000     0.818000000    -0.308000000
C    -0.159000000     0.356000000    -0.463000000
C    -0.359000000    -0.948000000     0.309000000
H     0.318000000    -1.661000000    -0.166000000
H    -0.098000000    -0.802000000     1.359000000
H    -1.388000000    -1.312000000     0.270000000
C     1.071000000     0.704000000    -1.011000000
H     2.024000000     0.219000000    -0.814000000
C     1.236000000     1.847000000    -1.857000000
H     2.215000000     2.138000000    -2.227000000
C     0.081000000     2.614000000    -2.180000000
C     0.243000000     3.876000000    -2.965000000
O     1.298000000     4.189000000    -3.501000000
O    -0.729000000     4.550000000    -3.117000000
