17
-89.84954
C    -1.371000000     2.932000000    -1.702000000
H    -2.351000000     3.387000000    -1.819000000
C    -1.306000000     1.859000000    -0.856000000
H    -2.235000000     1.439000000    -0.480000000
C    -0.102000000     1.233000000    -0.684000000
C     0.094000000    -0.001000000     0.134000000
H    -0.138000000    -0.950000000    -0.352000000
H     1.102000000    -0.022000000     0.553000000
H    -0.516000000     0.088000000     1.035000000
C     1.041000000     1.849000000    -1.132000000
H     1.971000000     1.292000000    -1.049000000
C     1.020000000     2.966000000    -1.988000000
H     1.875000000     3.464000000    -2.438000000
C    -0.214000000     3.528000000    -2.303000000
C    -0.300000000     4.807000000    -3.119000000
O     0.661000000     5.500000000    -3.158000000
O    -1.368000000     5.261000000    -3.518000000
