17
-95.47347
C    -1.236000000     2.961000000    -0.888000000
H    -2.131000000     3.576000000    -0.911000000
C    -1.157000000     1.656000000    -0.354000000
H    -1.996000000     1.211000000     0.175000000
C     0.001000000     0.947000000    -0.462000000
C     0.063000000    -0.407000000     0.188000000
H     0.930000000    -0.915000000    -0.239000000
H     0.122000000    -0.402000000     1.278000000
H    -0.783000000    -1.068000000    -0.012000000
C     1.145000000     1.548000000    -0.999000000
H     2.117000000     1.060000000    -0.999000000
C     1.123000000     2.844000000    -1.474000000
H     2.053000000     3.324000000    -1.768000000
C    -0.094000000     3.606000000    -1.478000000
C    -0.114000000     5.058000000    -1.897000000
O     0.728000000     5.377000000    -2.694000000
O    -0.893000000     5.841000000    -1.434000000
