17
-97.93996
C    -1.501000000     2.052000000    -0.274000000
H    -2.536000000     2.381000000    -0.331000000
C    -1.308000000     0.663000000    -0.218000000
H    -2.138000000    -0.038000000    -0.196000000
C     0.005000000     0.148000000    -0.282000000
C     0.243000000    -1.343000000    -0.193000000
H     0.118000000    -1.649000000     0.848000000
H    -0.414000000    -1.952000000    -0.818000000
H     1.288000000    -1.518000000    -0.456000000
C     1.054000000     1.003000000    -0.186000000
H     2.086000000     0.681000000    -0.075000000
C     0.860000000     2.375000000    -0.163000000
H     1.718000000     3.026000000    -0.017000000
C    -0.445000000     2.926000000    -0.213000000
C    -0.551000000     4.394000000    -0.285000000
O     0.426000000     5.109000000    -0.360000000
O    -1.673000000     4.861000000    -0.215000000
