17
-94.01049
C    -2.140000000     1.793000000     0.476000000
H    -3.167000000     1.812000000     0.833000000
C    -1.675000000     0.544000000     0.285000000
H    -2.386000000    -0.275000000     0.356000000
C    -0.369000000     0.345000000    -0.159000000
C     0.070000000    -1.012000000    -0.555000000
H    -0.430000000    -1.835000000    -0.040000000
H    -0.084000000    -1.114000000    -1.631000000
H     1.125000000    -1.043000000    -0.275000000
C     0.475000000     1.404000000    -0.309000000
H     1.527000000     1.285000000    -0.555000000
C     0.023000000     2.675000000    -0.136000000
H     0.577000000     3.578000000    -0.376000000
C    -1.324000000     2.950000000     0.270000000
C    -1.737000000     4.349000000     0.662000000
O    -1.021000000     5.305000000     0.429000000
O    -2.774000000     4.477000000     1.293000000
