17
-87.69690
C    -1.873000000     2.021000000     0.372000000
H    -2.895000000     2.386000000     0.423000000
C    -1.532000000     0.654000000     0.330000000
H    -2.295000000    -0.112000000     0.440000000
C    -0.245000000     0.261000000    -0.071000000
C    -0.091000000    -1.223000000    -0.223000000
H     0.958000000    -1.492000000    -0.365000000
H    -0.364000000    -1.626000000     0.755000000
H    -0.705000000    -1.677000000    -1.004000000
C     0.773000000     1.202000000    -0.177000000
H     1.823000000     0.928000000    -0.226000000
C     0.426000000     2.553000000    -0.062000000
H     1.239000000     3.252000000    -0.242000000
C    -0.853000000     2.999000000     0.201000000
C    -1.241000000     4.417000000     0.372000000
O    -0.552000000     5.410000000     0.178000000
O    -2.341000000     4.624000000     0.743000000
