17
-99.29467
C    -1.213000000     1.908000000     0.352000000
H    -2.171000000     2.408000000     0.229000000
C    -1.086000000     0.632000000    -0.129000000
H    -1.971000000     0.231000000    -0.617000000
C     0.164000000    -0.033000000    -0.126000000
C     0.192000000    -1.448000000    -0.571000000
H     1.137000000    -1.755000000    -1.026000000
H     0.069000000    -2.127000000     0.275000000
H    -0.602000000    -1.700000000    -1.277000000
C     1.203000000     0.531000000     0.574000000
H     2.156000000     0.009000000     0.579000000
C     1.084000000     1.832000000     1.117000000
H     1.939000000     2.371000000     1.517000000
C    -0.165000000     2.492000000     1.068000000
C    -0.348000000     3.865000000     1.588000000
O     0.619000000     4.314000000     2.185000000
O    -1.377000000     4.557000000     1.420000000
