17
-89.57803
C    -0.937000000     1.910000000     0.722000000
H    -1.813000000     2.484000000     1.013000000
C    -1.045000000     0.543000000     0.298000000
H    -2.032000000     0.131000000     0.104000000
C     0.109000000    -0.228000000     0.051000000
C    -0.108000000    -1.715000000    -0.508000000
H     0.660000000    -2.362000000    -0.079000000
H    -1.157000000    -1.989000000    -0.380000000
H     0.165000000    -1.795000000    -1.563000000
C     1.323000000     0.359000000     0.198000000
H     2.080000000    -0.364000000    -0.093000000
C     1.478000000     1.707000000     0.577000000
H     2.417000000     2.250000000     0.658000000
C     0.327000000     2.433000000     0.818000000
C     0.443000000     3.868000000     1.207000000
O     1.568000000     4.418000000     1.405000000
O    -0.559000000     4.514000000     1.251000000
