17
-91.54431
C    -1.192000000     1.821000000     0.839000000
H    -2.041000000     2.497000000     0.900000000
C    -1.092000000     0.749000000    -0.022000000
H    -1.924000000     0.464000000    -0.661000000
C     0.018000000    -0.070000000    -0.106000000
C    -0.018000000    -1.254000000    -1.027000000
H     0.678000000    -1.176000000    -1.865000000
H     0.198000000    -2.172000000    -0.477000000
H    -1.068000000    -1.367000000    -1.305000000
C     1.128000000     0.140000000     0.712000000
H     2.004000000    -0.499000000     0.640000000
C     1.138000000     1.274000000     1.486000000
H     1.999000000     1.578000000     2.076000000
C     0.023000000     2.102000000     1.584000000
C     0.180000000     3.371000000     2.460000000
O     0.986000000     3.454000000     3.338000000
O    -0.555000000     4.300000000     2.283000000
