17
-94.28237
C     0.107000000    -1.834000000     1.729000000
H     0.462000000    -2.104000000     2.721000000
C     0.685000000    -0.703000000     1.201000000
H     1.365000000    -0.043000000     1.733000000
C     0.277000000    -0.249000000    -0.071000000
C     0.913000000     0.918000000    -0.725000000
H     1.981000000     0.799000000    -0.531000000
H     0.672000000     1.093000000    -1.776000000
H     0.611000000     1.784000000    -0.132000000
C    -0.738000000    -0.905000000    -0.801000000
H    -0.990000000    -0.557000000    -1.800000000
C    -1.294000000    -2.031000000    -0.285000000
H    -2.038000000    -2.611000000    -0.825000000
C    -0.951000000    -2.488000000     1.012000000
C    -1.583000000    -3.685000000     1.685000000
O    -2.475000000    -4.277000000     1.140000000
O    -1.372000000    -3.918000000     2.890000000
