17
-100.46317
C    -0.715000000     2.412000000     0.714000000
H    -1.594000000     2.951000000     1.058000000
C    -0.856000000     1.189000000     0.089000000
H    -1.870000000     0.838000000    -0.085000000
C     0.247000000     0.442000000    -0.245000000
C    -0.061000000    -0.946000000    -0.710000000
H    -0.469000000    -1.510000000     0.132000000
H    -0.789000000    -0.888000000    -1.522000000
H     0.805000000    -1.595000000    -0.856000000
C     1.527000000     0.889000000     0.121000000
H     2.411000000     0.286000000    -0.070000000
C     1.672000000     2.147000000     0.674000000
H     2.670000000     2.484000000     0.943000000
C     0.534000000     2.898000000     1.029000000
C     0.716000000     4.157000000     1.903000000
O     1.826000000     4.686000000     2.038000000
O    -0.296000000     4.603000000     2.428000000
