17
-89.80913
C    -0.678000000     2.187000000     0.472000000
H    -1.418000000     2.984000000     0.476000000
C    -0.911000000     0.914000000    -0.084000000
H    -1.884000000     0.764000000    -0.545000000
C     0.019000000    -0.082000000     0.034000000
C    -0.211000000    -1.440000000    -0.619000000
H    -0.683000000    -2.136000000     0.078000000
H    -0.830000000    -1.281000000    -1.504000000
H     0.781000000    -1.836000000    -0.845000000
C     1.272000000     0.154000000     0.683000000
H     2.057000000    -0.598000000     0.675000000
C     1.507000000     1.432000000     1.200000000
H     2.411000000     1.587000000     1.782000000
C     0.573000000     2.499000000     1.070000000
C     0.765000000     3.770000000     1.760000000
O     1.522000000     3.807000000     2.668000000
O     0.031000000     4.701000000     1.570000000
