17
-96.65285
C     0.150000000     2.529000000     0.867000000
H    -0.335000000     3.501000000     0.847000000
C    -0.364000000     1.481000000     0.113000000
H    -1.288000000     1.579000000    -0.451000000
C     0.213000000     0.236000000     0.038000000
C    -0.290000000    -0.935000000    -0.806000000
H    -0.398000000    -1.803000000    -0.152000000
H    -1.307000000    -0.850000000    -1.194000000
H     0.311000000    -1.123000000    -1.698000000
C     1.354000000    -0.002000000     0.732000000
H     1.884000000    -0.949000000     0.665000000
C     1.923000000     1.055000000     1.446000000
H     2.838000000     0.866000000     2.001000000
C     1.333000000     2.306000000     1.600000000
C     1.902000000     3.333000000     2.509000000
O     3.015000000     3.160000000     2.983000000
O     1.318000000     4.381000000     2.694000000
