17
-97.73142
C    -0.433000000     2.023000000     1.943000000
H    -0.891000000     3.005000000     2.035000000
C    -0.618000000     1.363000000     0.702000000
H    -1.159000000     1.859000000    -0.100000000
C    -0.001000000     0.120000000     0.443000000
C    -0.013000000    -0.423000000    -0.938000000
H     0.433000000     0.327000000    -1.594000000
H     0.482000000    -1.394000000    -1.008000000
H    -1.047000000    -0.559000000    -1.260000000
C     0.693000000    -0.502000000     1.491000000
H     1.246000000    -1.432000000     1.384000000
C     0.841000000     0.202000000     2.733000000
H     1.505000000    -0.178000000     3.505000000
C     0.140000000     1.354000000     3.002000000
C     0.259000000     2.024000000     4.324000000
O     0.270000000     1.260000000     5.305000000
O     0.299000000     3.224000000     4.463000000
