17
-97.26079
C    -0.852000000     1.819000000     1.810000000
H    -1.540000000     2.598000000     2.129000000
C    -1.062000000     1.348000000     0.534000000
H    -1.815000000     1.841000000    -0.075000000
C    -0.346000000     0.257000000     0.057000000
C    -0.568000000    -0.413000000    -1.260000000
H    -1.341000000     0.164000000    -1.771000000
H     0.313000000    -0.259000000    -1.886000000
H    -0.916000000    -1.438000000    -1.112000000
C     0.566000000    -0.324000000     0.906000000
H     1.175000000    -1.149000000     0.543000000
C     0.795000000     0.201000000     2.216000000
H     1.515000000    -0.239000000     2.901000000
C     0.024000000     1.254000000     2.701000000
C     0.095000000     1.863000000     4.068000000
O     0.784000000     1.397000000     4.967000000
O    -0.556000000     2.905000000     4.331000000
