17
-95.18107
C    -1.191000000     1.843000000     1.806000000
H    -1.799000000     2.737000000     1.919000000
C    -1.158000000     1.250000000     0.578000000
H    -1.758000000     1.627000000    -0.246000000
C    -0.339000000     0.138000000     0.394000000
C    -0.300000000    -0.533000000    -0.983000000
H    -1.248000000    -0.485000000    -1.523000000
H     0.496000000    -0.121000000    -1.607000000
H    -0.211000000    -1.618000000    -0.904000000
C     0.505000000    -0.309000000     1.431000000
H     1.151000000    -1.173000000     1.296000000
C     0.455000000     0.366000000     2.681000000
H     1.065000000     0.026000000     3.514000000
C    -0.395000000     1.396000000     2.848000000
C    -0.573000000     2.020000000     4.185000000
O     0.272000000     1.719000000     5.024000000
O    -1.302000000     2.949000000     4.365000000
