17
-97.02074
C    -1.095000000     1.772000000     1.689000000
H    -1.984000000     2.353000000     1.922000000
C    -1.095000000     1.168000000     0.465000000
H    -1.920000000     1.310000000    -0.229000000
C    -0.149000000     0.197000000     0.150000000
C    -0.127000000    -0.592000000    -1.144000000
H    -1.044000000    -1.148000000    -1.348000000
H     0.112000000     0.000000000    -2.030000000
H     0.676000000    -1.330000000    -1.098000000
C     0.801000000    -0.078000000     1.157000000
H     1.625000000    -0.745000000     0.917000000
C     0.822000000     0.485000000     2.424000000
H     1.551000000     0.185000000     3.172000000
C    -0.198000000     1.365000000     2.726000000
C    -0.289000000     2.064000000     4.082000000
O     0.296000000     1.550000000     5.019000000
O    -0.695000000     3.221000000     4.108000000
