17
-97.70617
C    -0.805000000     1.253000000     1.872000000
H    -1.513000000     1.971000000     2.279000000
C    -0.907000000     0.870000000     0.550000000
H    -1.709000000     1.294000000    -0.049000000
C    -0.012000000     0.012000000    -0.055000000
C    -0.231000000    -0.366000000    -1.503000000
H    -0.523000000    -1.418000000    -1.479000000
H    -1.093000000     0.210000000    -1.846000000
H     0.625000000    -0.054000000    -2.106000000
C     1.014000000    -0.522000000     0.681000000
H     1.713000000    -1.239000000     0.257000000
C     1.066000000    -0.285000000     2.050000000
H     1.819000000    -0.834000000     2.609000000
C     0.226000000     0.652000000     2.605000000
C     0.445000000     1.095000000     4.048000000
O     1.446000000     0.806000000     4.676000000
O    -0.459000000     1.711000000     4.639000000
