17
-90.07601
C    -0.625000000     1.716000000     1.590000000
H    -1.289000000     2.471000000     2.005000000
C    -0.984000000     1.133000000     0.438000000
H    -1.942000000     1.414000000     0.008000000
C    -0.224000000     0.083000000    -0.144000000
C    -0.632000000    -0.529000000    -1.455000000
H     0.161000000    -0.582000000    -2.204000000
H    -1.044000000    -1.526000000    -1.285000000
H    -1.458000000     0.052000000    -1.872000000
C     0.831000000    -0.438000000     0.593000000
H     1.441000000    -1.221000000     0.150000000
C     1.224000000     0.156000000     1.732000000
H     2.121000000    -0.310000000     2.131000000
C     0.523000000     1.212000000     2.308000000
C     0.915000000     1.829000000     3.656000000
O     1.856000000     1.327000000     4.220000000
O     0.134000000     2.530000000     4.227000000
