17
-92.32999
C    -0.710000000     0.751000000     2.395000000
H    -1.563000000     1.199000000     2.900000000
C    -0.931000000     0.497000000     1.050000000
H    -1.819000000     0.929000000     0.595000000
C     0.051000000    -0.098000000     0.305000000
C    -0.165000000    -0.193000000    -1.220000000
H    -1.211000000    -0.337000000    -1.497000000
H     0.166000000     0.767000000    -1.622000000
H     0.394000000    -0.989000000    -1.716000000
C     1.179000000    -0.635000000     0.948000000
H     1.893000000    -1.091000000     0.267000000
C     1.310000000    -0.683000000     2.336000000
H     2.218000000    -1.006000000     2.839000000
C     0.290000000    -0.009000000     3.064000000
C     0.395000000     0.093000000     4.579000000
O     1.451000000    -0.309000000     5.099000000
O    -0.364000000     0.797000000     5.269000000
