17
-88.51743
C    -0.818000000     1.146000000     2.902000000
H    -1.424000000     1.715000000     3.602000000
C    -0.954000000     1.185000000     1.557000000
H    -1.714000000     1.818000000     1.106000000
C    -0.366000000     0.199000000     0.791000000
C    -0.575000000     0.067000000    -0.678000000
H    -1.226000000     0.861000000    -1.049000000
H     0.396000000     0.195000000    -1.160000000
H    -0.953000000    -0.888000000    -1.049000000
C     0.540000000    -0.704000000     1.335000000
H     1.262000000    -1.226000000     0.712000000
C     0.786000000    -0.628000000     2.689000000
H     1.369000000    -1.381000000     3.212000000
C     0.018000000     0.216000000     3.480000000
C     0.226000000     0.111000000     4.988000000
O     0.707000000    -0.883000000     5.555000000
O    -0.138000000     0.988000000     5.715000000
