17
-91.49114
C    -0.775000000     1.143000000     2.631000000
H    -1.339000000     1.801000000     3.287000000
C    -0.988000000     1.004000000     1.285000000
H    -1.814000000     1.518000000     0.800000000
C    -0.218000000     0.068000000     0.593000000
C    -0.497000000    -0.295000000    -0.825000000
H    -0.591000000    -1.378000000    -0.726000000
H    -1.493000000     0.020000000    -1.143000000
H     0.097000000     0.057000000    -1.672000000
C     0.874000000    -0.501000000     1.188000000
H     1.498000000    -1.164000000     0.594000000
C     1.196000000    -0.292000000     2.509000000
H     2.090000000    -0.796000000     2.868000000
C     0.350000000     0.519000000     3.270000000
C     0.685000000     0.755000000     4.746000000
O     1.739000000     0.417000000     5.293000000
O    -0.119000000     1.313000000     5.500000000
