17
-95.02666
C    -0.848000000     0.416000000     2.386000000
H    -1.733000000     0.729000000     2.934000000
C    -0.884000000     0.488000000     1.000000000
H    -1.728000000     0.952000000     0.496000000
C     0.101000000    -0.172000000     0.258000000
C     0.234000000    -0.058000000    -1.262000000
H     1.001000000     0.679000000    -1.509000000
H     0.392000000    -1.014000000    -1.766000000
H    -0.653000000     0.352000000    -1.750000000
C     1.204000000    -0.862000000     0.918000000
H     2.042000000    -1.302000000     0.383000000
C     1.253000000    -0.789000000     2.306000000
H     1.997000000    -1.400000000     2.813000000
C     0.253000000    -0.220000000     3.040000000
C     0.339000000    -0.162000000     4.578000000
O     1.217000000    -0.764000000     5.134000000
O    -0.434000000     0.520000000     5.221000000
