17
-91.96240
C    -0.696000000     1.564000000     2.397000000
H    -1.266000000     2.391000000     2.814000000
C    -0.689000000     1.169000000     1.075000000
H    -1.356000000     1.584000000     0.324000000
C     0.194000000     0.215000000     0.562000000
C     0.132000000    -0.237000000    -0.917000000
H     0.462000000    -1.269000000    -1.052000000
H    -0.926000000    -0.183000000    -1.184000000
H     0.714000000     0.488000000    -1.489000000
C     0.948000000    -0.465000000     1.495000000
H     1.486000000    -1.330000000     1.115000000
C     0.916000000    -0.187000000     2.878000000
H     1.400000000    -0.898000000     3.544000000
C     0.175000000     0.870000000     3.330000000
C     0.013000000     1.051000000     4.829000000
O     0.841000000     0.586000000     5.600000000
O    -0.796000000     1.842000000     5.324000000
