17
-92.45400
C    -0.906000000     0.970000000     2.266000000
H    -1.486000000     1.815000000     2.629000000
C    -0.948000000     0.782000000     0.896000000
H    -1.675000000     1.380000000     0.353000000
C    -0.206000000    -0.252000000     0.288000000
C    -0.407000000    -0.682000000    -1.151000000
H     0.583000000    -0.796000000    -1.599000000
H    -1.031000000    -1.562000000    -1.316000000
H    -0.949000000     0.141000000    -1.623000000
C     0.652000000    -1.030000000     1.155000000
H     1.237000000    -1.823000000     0.696000000
C     0.717000000    -0.795000000     2.541000000
H     1.321000000    -1.503000000     3.103000000
C    -0.017000000     0.219000000     3.127000000
C     0.151000000     0.696000000     4.534000000
O     0.382000000    -0.150000000     5.338000000
O     0.264000000     1.883000000     4.746000000
