17
-102.87783
C    -0.678000000     1.556000000     2.096000000
H    -1.253000000     2.395000000     2.481000000
C    -0.859000000     1.094000000     0.761000000
H    -1.568000000     1.570000000     0.089000000
C    -0.168000000    -0.056000000     0.328000000
C    -0.268000000    -0.414000000    -1.137000000
H     0.573000000     0.100000000    -1.608000000
H    -0.140000000    -1.484000000    -1.314000000
H    -1.252000000    -0.115000000    -1.505000000
C     0.660000000    -0.721000000     1.177000000
H     1.165000000    -1.600000000     0.786000000
C     0.780000000    -0.323000000     2.503000000
H     1.432000000    -0.897000000     3.157000000
C     0.069000000     0.803000000     3.004000000
C     0.107000000     1.171000000     4.452000000
O     0.863000000     0.611000000     5.258000000
O    -0.647000000     2.134000000     4.790000000
