17
-100.51663
C    -1.278000000     1.748000000     2.376000000
H    -1.829000000     2.617000000     2.725000000
C    -1.354000000     1.420000000     1.018000000
H    -1.937000000     2.048000000     0.349000000
C    -0.700000000     0.300000000     0.498000000
C    -0.763000000    -0.100000000    -0.958000000
H    -0.874000000    -1.173000000    -1.127000000
H    -1.606000000     0.354000000    -1.482000000
H     0.170000000     0.165000000    -1.460000000
C     0.053000000    -0.499000000     1.417000000
H     0.571000000    -1.381000000     1.051000000
C     0.061000000    -0.224000000     2.787000000
H     0.664000000    -0.825000000     3.464000000
C    -0.600000000     0.935000000     3.256000000
C    -0.612000000     1.249000000     4.731000000
O    -0.118000000     0.487000000     5.543000000
O    -1.097000000     2.278000000     5.143000000
