17
-97.64097
C    -0.521000000    -2.617000000     2.043000000
H    -0.142000000    -3.006000000     2.985000000
C     0.042000000    -1.394000000     1.575000000
H     0.797000000    -0.915000000     2.193000000
C    -0.414000000    -0.847000000     0.393000000
C     0.144000000     0.464000000    -0.049000000
H     0.873000000     0.934000000     0.614000000
H     0.475000000     0.239000000    -1.065000000
H    -0.668000000     1.191000000    -0.126000000
C    -1.431000000    -1.445000000    -0.362000000
H    -1.809000000    -0.996000000    -1.276000000
C    -1.903000000    -2.673000000     0.029000000
H    -2.743000000    -3.046000000    -0.550000000
C    -1.471000000    -3.272000000     1.253000000
C    -2.235000000    -4.463000000     1.762000000
O    -3.148000000    -4.914000000     1.063000000
O    -2.107000000    -4.926000000     2.897000000
