17
-91.83350
C     0.392000000     1.430000000     2.389000000
H    -0.261000000     1.990000000     3.054000000
C    -0.270000000     0.996000000     1.250000000
H    -1.305000000     1.293000000     1.101000000
C     0.328000000     0.143000000     0.316000000
C    -0.322000000    -0.279000000    -0.981000000
H    -1.242000000     0.251000000    -1.233000000
H     0.269000000     0.002000000    -1.855000000
H    -0.343000000    -1.368000000    -0.905000000
C     1.598000000    -0.354000000     0.561000000
H     2.181000000    -1.010000000    -0.080000000
C     2.269000000     0.056000000     1.730000000
H     3.300000000    -0.273000000     1.832000000
C     1.675000000     0.907000000     2.693000000
C     2.414000000     1.153000000     3.972000000
O     3.561000000     0.771000000     4.246000000
O     1.921000000     1.963000000     4.732000000
