17
-90.79703
C    -0.708000000     1.470000000     2.124000000
H    -1.375000000     2.214000000     2.552000000
C    -1.024000000     1.036000000     0.821000000
H    -1.920000000     1.412000000     0.333000000
C    -0.302000000    -0.066000000     0.276000000
C    -0.747000000    -0.723000000    -0.943000000
H     0.187000000    -1.099000000    -1.365000000
H    -1.381000000    -1.571000000    -0.675000000
H    -1.212000000    -0.113000000    -1.721000000
C     0.753000000    -0.610000000     0.983000000
H     1.327000000    -1.423000000     0.545000000
C     1.145000000    -0.066000000     2.213000000
H     1.845000000    -0.612000000     2.840000000
C     0.373000000     0.924000000     2.836000000
C     0.674000000     1.418000000     4.165000000
O     1.681000000     0.974000000     4.719000000
O     0.183000000     2.426000000     4.682000000
