17
-82.62731
C    -0.005000000     1.488000000     2.051000000
H    -0.559000000     2.281000000     2.547000000
C    -0.406000000     1.089000000     0.817000000
H    -1.248000000     1.593000000     0.349000000
C     0.199000000     0.001000000     0.135000000
C    -0.339000000    -0.535000000    -1.224000000
H    -0.584000000    -1.590000000    -1.084000000
H    -1.082000000     0.051000000    -1.769000000
H     0.520000000    -0.651000000    -1.888000000
C     1.157000000    -0.725000000     0.863000000
H     1.601000000    -1.681000000     0.598000000
C     1.553000000    -0.298000000     2.134000000
H     2.304000000    -0.846000000     2.697000000
C     1.001000000     0.889000000     2.648000000
C     1.437000000     1.464000000     3.969000000
O     2.427000000     0.993000000     4.442000000
O     1.064000000     2.561000000     4.355000000
