17
-93.12085
C    -0.452000000     0.959000000     2.367000000
H    -1.136000000     1.697000000     2.778000000
C    -0.476000000     0.713000000     0.960000000
H    -1.196000000     1.260000000     0.357000000
C     0.216000000    -0.266000000     0.366000000
C     0.080000000    -0.579000000    -1.076000000
H     0.726000000     0.165000000    -1.546000000
H     0.511000000    -1.505000000    -1.463000000
H    -0.933000000    -0.524000000    -1.479000000
C     1.208000000    -0.907000000     1.092000000
H     1.770000000    -1.704000000     0.612000000
C     1.312000000    -0.670000000     2.463000000
H     1.943000000    -1.309000000     3.077000000
C     0.549000000     0.286000000     3.160000000
C     0.783000000     0.617000000     4.570000000
O     1.758000000     0.095000000     5.101000000
O     0.077000000     1.406000000     5.235000000
