17
-89.46565
C     0.028000000     1.286000000     2.084000000
H    -0.343000000     2.096000000     2.708000000
C    -0.640000000     1.027000000     0.876000000
H    -1.467000000     1.701000000     0.672000000
C    -0.156000000     0.029000000     0.007000000
C    -0.629000000    -0.074000000    -1.463000000
H    -1.479000000    -0.759000000    -1.488000000
H    -0.846000000     0.924000000    -1.849000000
H     0.134000000    -0.518000000    -2.106000000
C     0.841000000    -0.762000000     0.451000000
H     1.284000000    -1.566000000    -0.131000000
C     1.509000000    -0.463000000     1.604000000
H     2.250000000    -1.210000000     1.879000000
C     1.150000000     0.574000000     2.424000000
C     1.938000000     0.834000000     3.674000000
O     2.882000000     0.157000000     3.912000000
O     1.610000000     1.717000000     4.426000000
