17
-96.09889
C    -0.386000000     0.425000000     2.662000000
H    -1.205000000     0.469000000     3.375000000
C    -0.715000000     0.404000000     1.308000000
H    -1.682000000     0.806000000     1.020000000
C     0.083000000    -0.111000000     0.322000000
C    -0.468000000    -0.114000000    -1.125000000
H    -1.495000000    -0.484000000    -1.086000000
H    -0.314000000     0.846000000    -1.622000000
H     0.018000000    -0.893000000    -1.716000000
C     1.417000000    -0.514000000     0.695000000
H     2.173000000    -0.821000000    -0.024000000
C     1.790000000    -0.473000000     2.021000000
H     2.775000000    -0.849000000     2.286000000
C     0.908000000     0.028000000     2.994000000
C     1.340000000     0.001000000     4.423000000
O     2.404000000    -0.580000000     4.781000000
O     0.569000000     0.466000000     5.249000000
