17
-93.97469
C    -0.677000000     1.028000000     2.584000000
H    -1.434000000     1.489000000     3.214000000
C    -1.029000000     0.898000000     1.225000000
H    -1.951000000     1.346000000     0.863000000
C    -0.252000000     0.028000000     0.451000000
C    -0.517000000    -0.103000000    -0.964000000
H    -0.455000000    -1.156000000    -1.245000000
H    -1.572000000     0.136000000    -1.110000000
H     0.187000000     0.548000000    -1.486000000
C     0.885000000    -0.572000000     0.990000000
H     1.612000000    -1.035000000     0.328000000
C     1.204000000    -0.395000000     2.315000000
H     2.059000000    -0.956000000     2.684000000
C     0.413000000     0.399000000     3.151000000
C     0.802000000     0.761000000     4.555000000
O     1.759000000     0.282000000     5.099000000
O     0.062000000     1.533000000     5.190000000
