17
-86.89199
C    -0.642000000     0.296000000     2.860000000
H    -1.412000000     0.763000000     3.469000000
C    -0.882000000     0.255000000     1.478000000
H    -1.812000000     0.676000000     1.104000000
C     0.109000000    -0.229000000     0.625000000
C    -0.197000000    -0.258000000    -0.870000000
H    -0.057000000    -1.312000000    -1.120000000
H    -1.280000000    -0.264000000    -1.005000000
H     0.314000000     0.474000000    -1.497000000
C     1.324000000    -0.720000000     1.195000000
H     2.074000000    -1.251000000     0.614000000
C     1.519000000    -0.711000000     2.549000000
H     2.394000000    -1.212000000     2.955000000
C     0.599000000    -0.124000000     3.459000000
C     0.832000000    -0.082000000     4.956000000
O     1.783000000    -0.639000000     5.468000000
O     0.268000000     0.701000000     5.722000000
