17
-96.20266
C    -0.840000000     0.820000000     2.661000000
H    -1.600000000     1.354000000     3.226000000
C    -1.094000000     0.544000000     1.316000000
H    -2.000000000     0.885000000     0.822000000
C    -0.170000000    -0.200000000     0.543000000
C    -0.356000000    -0.525000000    -0.868000000
H    -0.648000000    -1.542000000    -1.137000000
H    -1.072000000     0.201000000    -1.256000000
H     0.552000000    -0.245000000    -1.406000000
C     1.100000000    -0.458000000     1.062000000
H     1.839000000    -1.013000000     0.490000000
C     1.431000000    -0.091000000     2.395000000
H     2.441000000    -0.094000000     2.796000000
C     0.443000000     0.529000000     3.166000000
C     0.690000000     0.658000000     4.732000000
O     1.705000000     0.123000000     5.256000000
O    -0.171000000     1.149000000     5.422000000
