17
-89.22748
C    -0.701000000     0.931000000     2.587000000
H    -1.480000000     1.327000000     3.233000000
C    -0.966000000     0.920000000     1.211000000
H    -1.951000000     1.198000000     0.845000000
C    -0.094000000     0.289000000     0.362000000
C    -0.372000000    -0.003000000    -1.137000000
H     0.084000000     0.769000000    -1.760000000
H     0.118000000    -0.948000000    -1.378000000
H    -1.447000000     0.095000000    -1.302000000
C     1.171000000    -0.148000000     0.880000000
H     1.895000000    -0.690000000     0.276000000
C     1.465000000    -0.166000000     2.224000000
H     2.308000000    -0.649000000     2.713000000
C     0.480000000     0.390000000     3.083000000
C     0.755000000     0.471000000     4.566000000
O     1.569000000    -0.242000000     5.060000000
O     0.283000000     1.331000000     5.284000000
