17
-95.98825
C    -0.115000000     0.628000000     2.555000000
H    -0.761000000     1.207000000     3.209000000
C    -0.467000000     0.692000000     1.222000000
H    -1.273000000     1.341000000     0.889000000
C     0.121000000    -0.192000000     0.346000000
C    -0.212000000    -0.243000000    -1.187000000
H     0.034000000    -1.250000000    -1.532000000
H    -1.256000000    -0.099000000    -1.473000000
H     0.359000000     0.548000000    -1.678000000
C     1.197000000    -0.942000000     0.761000000
H     1.698000000    -1.597000000     0.053000000
C     1.624000000    -0.947000000     2.122000000
H     2.463000000    -1.568000000     2.425000000
C     0.920000000    -0.187000000     3.043000000
C     1.447000000    -0.161000000     4.469000000
O     2.156000000    -1.031000000     4.962000000
O     0.879000000     0.674000000     5.172000000
