17
-93.98613
C    -0.399000000     0.957000000     2.122000000
H    -1.121000000     1.468000000     2.754000000
C    -0.750000000     0.893000000     0.761000000
H    -1.599000000     1.432000000     0.348000000
C     0.065000000     0.085000000    -0.048000000
C    -0.341000000    -0.051000000    -1.528000000
H    -0.081000000    -1.035000000    -1.923000000
H    -1.391000000     0.185000000    -1.710000000
H     0.158000000     0.735000000    -2.099000000
C     1.147000000    -0.601000000     0.400000000
H     1.652000000    -1.287000000    -0.275000000
C     1.395000000    -0.549000000     1.776000000
H     2.241000000    -1.107000000     2.169000000
C     0.649000000     0.179000000     2.645000000
C     1.112000000     0.234000000     4.116000000
O     2.050000000    -0.392000000     4.472000000
O     0.378000000     0.780000000     4.932000000
