17
-89.82629
C     0.803000000     1.821000000     1.640000000
H     0.656000000     2.856000000     1.938000000
C     0.096000000     1.241000000     0.576000000
H    -0.527000000     1.809000000    -0.110000000
C     0.344000000    -0.026000000     0.231000000
C    -0.084000000    -0.495000000    -1.140000000
H    -1.039000000    -1.014000000    -1.031000000
H    -0.307000000     0.346000000    -1.800000000
H     0.426000000    -1.348000000    -1.591000000
C     1.259000000    -0.753000000     1.013000000
H     1.321000000    -1.803000000     0.739000000
C     1.946000000    -0.216000000     2.095000000
H     2.557000000    -0.868000000     2.715000000
C     1.691000000     1.100000000     2.388000000
C     2.332000000     1.808000000     3.525000000
O     3.170000000     1.223000000     4.212000000
O     1.861000000     2.884000000     3.906000000
