17
-91.69832
C    -0.615000000     1.914000000     2.152000000
H    -1.315000000     2.616000000     2.597000000
C    -0.860000000     1.398000000     0.851000000
H    -1.808000000     1.567000000     0.347000000
C     0.084000000     0.581000000     0.306000000
C    -0.226000000    -0.046000000    -1.041000000
H    -1.138000000     0.263000000    -1.555000000
H     0.695000000     0.154000000    -1.592000000
H    -0.331000000    -1.133000000    -1.053000000
C     1.267000000     0.335000000     0.956000000
H     1.993000000    -0.294000000     0.448000000
C     1.565000000     0.927000000     2.171000000
H     2.548000000     0.753000000     2.602000000
C     0.602000000     1.684000000     2.817000000
C     0.920000000     2.149000000     4.162000000
O     2.088000000     2.017000000     4.557000000
O     0.184000000     2.721000000     4.963000000
