17
-92.42391
C    -0.611000000     1.915000000     1.750000000
H    -1.461000000     2.445000000     2.173000000
C    -0.642000000     1.156000000     0.579000000
H    -1.612000000     1.132000000     0.089000000
C     0.366000000     0.335000000     0.083000000
C     0.125000000    -0.536000000    -1.147000000
H     0.786000000    -1.385000000    -0.962000000
H    -0.919000000    -0.807000000    -1.321000000
H     0.610000000     0.010000000    -1.959000000
C     1.464000000     0.121000000     0.862000000
H     2.181000000    -0.627000000     0.534000000
C     1.615000000     0.897000000     1.983000000
H     2.488000000     0.746000000     2.613000000
C     0.590000000     1.745000000     2.449000000
C     0.678000000     2.311000000     3.848000000
O     1.549000000     1.861000000     4.611000000
O    -0.184000000     3.048000000     4.295000000
