17
-96.32835
C    -0.187000000     1.234000000     2.203000000
H    -0.864000000     1.839000000     2.800000000
C    -0.624000000     0.880000000     0.929000000
H    -1.623000000     1.171000000     0.615000000
C     0.216000000     0.160000000     0.070000000
C    -0.335000000    -0.241000000    -1.299000000
H    -0.813000000     0.588000000    -1.825000000
H     0.406000000    -0.656000000    -1.985000000
H    -1.143000000    -0.968000000    -1.188000000
C     1.417000000    -0.294000000     0.492000000
H     2.142000000    -0.807000000    -0.136000000
C     1.840000000    -0.042000000     1.849000000
H     2.819000000    -0.422000000     2.131000000
C     1.055000000     0.730000000     2.703000000
C     1.429000000     1.074000000     4.148000000
O     2.568000000     0.856000000     4.563000000
O     0.719000000     1.820000000     4.754000000
