17
-100.59853
C     0.551000000     1.632000000     2.144000000
H     0.411000000     2.583000000     2.652000000
C    -0.181000000     1.310000000     0.986000000
H    -0.850000000     2.065000000     0.583000000
C     0.043000000     0.060000000     0.319000000
C    -0.549000000    -0.209000000    -1.045000000
H    -1.458000000    -0.813000000    -1.002000000
H    -0.870000000     0.631000000    -1.665000000
H     0.146000000    -0.745000000    -1.695000000
C     0.855000000    -0.880000000     0.933000000
H     0.911000000    -1.893000000     0.543000000
C     1.637000000    -0.554000000     2.003000000
H     2.284000000    -1.300000000     2.457000000
C     1.497000000     0.737000000     2.627000000
C     2.317000000     1.148000000     3.857000000
O     2.932000000     0.248000000     4.435000000
O     2.164000000     2.261000000     4.355000000
