17
-92.54169
C    -0.275000000     1.189000000     2.780000000
H    -1.002000000     1.441000000     3.548000000
C    -0.731000000     0.489000000     1.663000000
H    -1.758000000     0.182000000     1.485000000
C     0.167000000     0.117000000     0.699000000
C    -0.245000000    -0.587000000    -0.634000000
H    -1.012000000    -0.001000000    -1.145000000
H     0.574000000    -0.767000000    -1.334000000
H    -0.712000000    -1.554000000    -0.437000000
C     1.513000000     0.323000000     0.853000000
H     2.206000000    -0.030000000     0.093000000
C     1.910000000     1.143000000     1.883000000
H     2.967000000     1.373000000     1.989000000
C     1.038000000     1.533000000     2.920000000
C     1.555000000     2.225000000     4.123000000
O     2.751000000     2.322000000     4.329000000
O     0.793000000     2.418000000     5.051000000
