17
-93.68350
C    -0.346000000     0.556000000     2.685000000
H    -0.992000000     0.368000000     3.539000000
C    -0.989000000     0.513000000     1.452000000
H    -2.054000000     0.303000000     1.521000000
C    -0.216000000     0.584000000     0.288000000
C    -0.624000000     0.210000000    -1.124000000
H    -0.166000000     0.997000000    -1.727000000
H    -0.280000000    -0.790000000    -1.395000000
H    -1.707000000     0.190000000    -1.263000000
C     1.155000000     0.833000000     0.448000000
H     1.717000000     0.885000000    -0.482000000
C     1.841000000     0.876000000     1.673000000
H     2.926000000     0.844000000     1.737000000
C     0.976000000     0.839000000     2.837000000
C     1.607000000     0.961000000     4.221000000
O     2.763000000     1.342000000     4.211000000
O     0.933000000     0.847000000     5.217000000
