17
-94.00613
C    -0.171000000     0.607000000     2.537000000
H    -0.742000000     1.085000000     3.330000000
C    -0.782000000     0.398000000     1.256000000
H    -1.763000000     0.815000000     1.047000000
C    -0.116000000    -0.335000000     0.256000000
C    -0.699000000    -0.503000000    -1.118000000
H    -0.544000000     0.320000000    -1.819000000
H    -0.312000000    -1.414000000    -1.581000000
H    -1.789000000    -0.516000000    -1.058000000
C     1.209000000    -0.749000000     0.465000000
H     1.723000000    -1.331000000    -0.296000000
C     1.831000000    -0.403000000     1.628000000
H     2.827000000    -0.825000000     1.736000000
C     1.174000000     0.148000000     2.713000000
C     1.916000000     0.437000000     4.019000000
O     3.131000000     0.551000000     4.074000000
O     1.270000000     0.799000000     4.976000000
