17
-92.69802
C    -0.320000000     0.658000000     2.704000000
H    -1.030000000     1.111000000     3.390000000
C    -0.614000000     0.434000000     1.379000000
H    -1.634000000     0.571000000     1.032000000
C     0.359000000     0.064000000     0.460000000
C     0.132000000    -0.103000000    -0.989000000
H     1.064000000    -0.106000000    -1.557000000
H    -0.313000000    -1.050000000    -1.304000000
H    -0.499000000     0.740000000    -1.278000000
C     1.592000000    -0.115000000     0.920000000
H     2.364000000    -0.411000000     0.215000000
C     1.958000000     0.063000000     2.242000000
H     2.976000000    -0.082000000     2.595000000
C     1.018000000     0.505000000     3.171000000
C     1.325000000     0.546000000     4.657000000
O     2.471000000     0.399000000     4.981000000
O     0.446000000     1.005000000     5.343000000
