17
-86.26538
C    -0.614000000     1.719000000     2.332000000
H    -1.412000000     2.207000000     2.886000000
C    -0.832000000     0.946000000     1.254000000
H    -1.825000000     0.556000000     1.046000000
C     0.158000000     0.316000000     0.480000000
C    -0.187000000    -0.634000000    -0.713000000
H    -0.369000000    -1.604000000    -0.246000000
H    -1.088000000    -0.394000000    -1.280000000
H     0.661000000    -0.826000000    -1.374000000
C     1.483000000     0.679000000     0.784000000
H     2.316000000     0.297000000     0.200000000
C     1.765000000     1.533000000     1.841000000
H     2.760000000     1.906000000     2.071000000
C     0.729000000     2.061000000     2.658000000
C     1.067000000     3.121000000     3.746000000
O     2.143000000     3.624000000     3.840000000
O     0.329000000     3.203000000     4.689000000
