17
-93.82600
C    -0.410000000     0.700000000     2.079000000
H    -1.049000000     1.243000000     2.770000000
C    -0.808000000     0.372000000     0.784000000
H    -1.850000000     0.531000000     0.517000000
C     0.079000000    -0.165000000    -0.062000000
C    -0.334000000    -0.848000000    -1.342000000
H    -0.825000000    -1.791000000    -1.092000000
H    -0.940000000    -0.126000000    -1.893000000
H     0.501000000    -1.258000000    -1.914000000
C     1.410000000    -0.293000000     0.273000000
H     2.043000000    -0.695000000    -0.513000000
C     1.844000000     0.097000000     1.551000000
H     2.843000000    -0.174000000     1.881000000
C     0.893000000     0.476000000     2.454000000
C     1.389000000     0.929000000     3.866000000
O     2.589000000     1.167000000     3.982000000
O     0.559000000     1.250000000     4.707000000
