17
-94.14697
C    -0.751000000    -2.022000000     1.160000000
H    -0.622000000    -2.576000000     2.087000000
C     0.156000000    -0.983000000     0.817000000
H     1.049000000    -0.740000000     1.387000000
C    -0.120000000    -0.135000000    -0.278000000
C     0.726000000     1.098000000    -0.554000000
H     0.123000000     2.005000000    -0.479000000
H     1.433000000     1.035000000     0.276000000
H     1.282000000     1.056000000    -1.493000000
C    -1.281000000    -0.393000000    -1.043000000
H    -1.630000000     0.362000000    -1.743000000
C    -2.092000000    -1.507000000    -0.750000000
H    -2.977000000    -1.601000000    -1.375000000
C    -1.898000000    -2.246000000     0.402000000
C    -2.865000000    -3.355000000     0.785000000
O    -3.811000000    -3.659000000     0.115000000
O    -2.638000000    -4.045000000     1.777000000
