17
-100.28970
C     0.224000000     2.956000000     1.104000000
H    -0.300000000     3.902000000     1.221000000
C    -0.452000000     1.831000000     0.616000000
H    -1.496000000     1.941000000     0.334000000
C     0.247000000     0.661000000     0.376000000
C    -0.388000000    -0.567000000    -0.243000000
H    -1.223000000    -0.322000000    -0.902000000
H     0.303000000    -1.032000000    -0.949000000
H    -0.642000000    -1.252000000     0.569000000
C     1.591000000     0.611000000     0.732000000
H     2.146000000    -0.310000000     0.573000000
C     2.289000000     1.695000000     1.227000000
H     3.358000000     1.687000000     1.420000000
C     1.605000000     2.927000000     1.423000000
C     2.254000000     4.120000000     2.001000000
O     3.439000000     4.066000000     2.272000000
O     1.670000000     5.202000000     2.024000000
