17
-99.71312
C     2.033000000     1.495000000     0.888000000
H     2.606000000     2.413000000     0.785000000
C     1.110000000     1.212000000    -0.081000000
H     0.895000000     1.994000000    -0.805000000
C     0.397000000     0.020000000    -0.097000000
C    -0.695000000    -0.252000000    -1.081000000
H    -0.430000000    -1.161000000    -1.626000000
H    -1.610000000    -0.509000000    -0.543000000
H    -0.849000000     0.503000000    -1.854000000
C     0.592000000    -0.848000000     0.993000000
H    -0.021000000    -1.744000000     1.059000000
C     1.485000000    -0.512000000     2.075000000
H     1.749000000    -1.177000000     2.893000000
C     2.230000000     0.636000000     1.979000000
C     3.176000000     1.053000000     3.120000000
O     2.848000000     0.665000000     4.242000000
O     4.032000000     1.889000000     2.919000000
