17
-93.79346
C     0.101000000     2.041000000     1.975000000
H    -0.467000000     2.848000000     2.432000000
C    -0.586000000     1.314000000     0.978000000
H    -1.645000000     1.414000000     0.757000000
C     0.147000000     0.498000000     0.132000000
C    -0.468000000    -0.294000000    -0.952000000
H    -1.214000000    -0.949000000    -0.498000000
H    -0.901000000     0.405000000    -1.670000000
H     0.252000000    -0.896000000    -1.509000000
C     1.461000000     0.197000000     0.471000000
H     1.984000000    -0.568000000    -0.096000000
C     2.114000000     0.852000000     1.481000000
H     3.156000000     0.582000000     1.634000000
C     1.464000000     1.776000000     2.296000000
C     2.125000000     2.491000000     3.441000000
O     3.093000000     1.945000000     3.908000000
O     1.642000000     3.447000000     4.067000000
