17
-96.96806
C     1.434000000     2.079000000     1.114000000
H     1.748000000     3.119000000     1.143000000
C     0.769000000     1.554000000     0.004000000
H     0.562000000     2.208000000    -0.839000000
C     0.372000000     0.218000000     0.031000000
C    -0.415000000    -0.346000000    -1.108000000
H     0.062000000    -0.344000000    -2.090000000
H    -0.658000000    -1.394000000    -0.922000000
H    -1.326000000     0.219000000    -1.316000000
C     0.758000000    -0.561000000     1.106000000
H     0.534000000    -1.624000000     1.142000000
C     1.474000000    -0.059000000     2.180000000
H     1.597000000    -0.733000000     3.024000000
C     1.696000000     1.280000000     2.268000000
C     2.324000000     1.908000000     3.486000000
O     2.460000000     1.130000000     4.442000000
O     2.715000000     3.031000000     3.578000000
