17
-97.39084
C     1.284000000     1.984000000     2.096000000
H     1.999000000     2.800000000     2.163000000
C     0.978000000     1.463000000     0.849000000
H     1.331000000     1.835000000    -0.110000000
C     0.112000000     0.366000000     0.758000000
C    -0.329000000    -0.180000000    -0.573000000
H    -1.017000000    -0.972000000    -0.271000000
H    -0.815000000     0.643000000    -1.101000000
H     0.538000000    -0.531000000    -1.137000000
C    -0.461000000    -0.153000000     1.905000000
H    -1.199000000    -0.949000000     1.848000000
C    -0.246000000     0.425000000     3.162000000
H    -0.797000000     0.147000000     4.057000000
C     0.703000000     1.433000000     3.285000000
C     1.257000000     1.887000000     4.606000000
O     0.959000000     1.352000000     5.697000000
O     2.032000000     2.813000000     4.593000000
