17
-94.33426
C     1.087000000     2.042000000     1.718000000
H     1.782000000     2.866000000     1.862000000
C     0.955000000     1.508000000     0.482000000
H     1.362000000     2.009000000    -0.392000000
C    -0.020000000     0.465000000     0.285000000
C    -0.510000000     0.033000000    -1.076000000
H     0.210000000     0.248000000    -1.868000000
H    -0.726000000    -1.032000000    -1.183000000
H    -1.406000000     0.645000000    -1.195000000
C    -0.672000000    -0.141000000     1.380000000
H    -1.430000000    -0.877000000     1.124000000
C    -0.415000000     0.329000000     2.654000000
H    -0.862000000    -0.129000000     3.533000000
C     0.442000000     1.462000000     2.880000000
C     0.673000000     2.020000000     4.262000000
O     0.212000000     1.306000000     5.155000000
O     1.255000000     3.036000000     4.527000000
