17
-89.21552
C     1.256000000     1.076000000     1.223000000
H     1.944000000     1.908000000     1.356000000
C     0.723000000     0.921000000    -0.021000000
H     0.921000000     1.696000000    -0.758000000
C    -0.012000000    -0.187000000    -0.323000000
C    -0.484000000    -0.466000000    -1.725000000
H    -0.269000000     0.414000000    -2.335000000
H     0.092000000    -1.326000000    -2.074000000
H    -1.570000000    -0.585000000    -1.736000000
C    -0.335000000    -1.129000000     0.649000000
H    -0.761000000    -2.074000000     0.322000000
C     0.019000000    -0.861000000     1.919000000
H    -0.208000000    -1.527000000     2.747000000
C     0.812000000     0.222000000     2.237000000
C     1.484000000     0.320000000     3.592000000
O     1.086000000    -0.489000000     4.417000000
O     2.173000000     1.221000000     3.922000000
