17
-95.98265
C     0.666000000     1.884000000     1.561000000
H     1.017000000     2.893000000     1.761000000
C     0.422000000     1.474000000     0.236000000
H     0.536000000     2.156000000    -0.603000000
C     0.007000000     0.165000000    -0.018000000
C    -0.068000000    -0.219000000    -1.433000000
H     0.758000000    -0.868000000    -1.733000000
H    -0.952000000    -0.837000000    -1.605000000
H    -0.118000000     0.638000000    -2.108000000
C    -0.149000000    -0.743000000     1.057000000
H    -0.375000000    -1.778000000     0.816000000
C     0.107000000    -0.359000000     2.357000000
H     0.029000000    -1.045000000     3.196000000
C     0.551000000     0.947000000     2.603000000
C     0.946000000     1.321000000     3.965000000
O     0.737000000     0.594000000     4.947000000
O     1.537000000     2.340000000     4.201000000
