17
-87.83499
C     1.459000000     0.554000000     1.603000000
H     2.229000000     1.234000000     1.957000000
C     0.972000000     0.500000000     0.280000000
H     1.203000000     1.242000000    -0.480000000
C     0.176000000    -0.477000000    -0.154000000
C    -0.158000000    -0.627000000    -1.580000000
H    -1.106000000    -0.130000000    -1.800000000
H     0.578000000    -0.129000000    -2.215000000
H    -0.179000000    -1.657000000    -1.941000000
C    -0.366000000    -1.391000000     0.728000000
H    -1.088000000    -2.115000000     0.359000000
C    -0.070000000    -1.283000000     2.091000000
H    -0.548000000    -1.771000000     2.937000000
C     0.954000000    -0.399000000     2.532000000
C     1.326000000    -0.294000000     3.945000000
O     0.843000000    -1.006000000     4.742000000
O     1.979000000     0.702000000     4.284000000
