17
-95.33186
C    -1.139000000    -1.644000000     1.169000000
H    -0.963000000    -2.249000000     2.055000000
C    -0.230000000    -0.617000000     0.933000000
H     0.669000000    -0.494000000     1.531000000
C    -0.499000000     0.153000000    -0.211000000
C     0.574000000     1.100000000    -0.584000000
H     1.533000000     0.620000000    -0.378000000
H     0.575000000     1.317000000    -1.654000000
H     0.527000000     2.091000000    -0.127000000
C    -1.654000000    -0.122000000    -0.992000000
H    -1.722000000     0.390000000    -1.948000000
C    -2.550000000    -1.086000000    -0.648000000
H    -3.432000000    -1.266000000    -1.256000000
C    -2.371000000    -1.811000000     0.516000000
C    -3.304000000    -2.887000000     0.904000000
O    -4.384000000    -3.079000000     0.316000000
O    -3.035000000    -3.648000000     1.823000000
