17
-96.05834
C     0.918000000     0.146000000     2.464000000
H     1.682000000     0.657000000     3.043000000
C     0.978000000     0.241000000     1.047000000
H     1.721000000     0.856000000     0.546000000
C    -0.050000000    -0.327000000     0.291000000
C    -0.096000000    -0.185000000    -1.260000000
H     0.233000000     0.816000000    -1.546000000
H     0.462000000    -1.013000000    -1.704000000
H    -1.159000000    -0.225000000    -1.507000000
C    -0.990000000    -1.116000000     0.879000000
H    -1.570000000    -1.754000000     0.216000000
C    -0.970000000    -1.313000000     2.263000000
H    -1.711000000    -2.029000000     2.610000000
C    -0.009000000    -0.685000000     3.122000000
C     0.070000000    -0.947000000     4.583000000
O    -0.597000000    -1.803000000     5.145000000
O     0.916000000    -0.297000000     5.197000000
