17
-96.29924
C     0.617000000     1.913000000     1.287000000
H     1.077000000     2.863000000     1.546000000
C     0.670000000     1.331000000     0.010000000
H     1.143000000     1.812000000    -0.843000000
C     0.091000000     0.129000000    -0.158000000
C     0.132000000    -0.487000000    -1.480000000
H    -0.174000000    -1.532000000    -1.559000000
H    -0.399000000     0.094000000    -2.238000000
H     1.185000000    -0.565000000    -1.760000000
C    -0.338000000    -0.623000000     0.925000000
H    -0.747000000    -1.609000000     0.718000000
C    -0.391000000    -0.077000000     2.260000000
H    -0.820000000    -0.633000000     3.090000000
C     0.095000000     1.253000000     2.409000000
C     0.146000000     1.931000000     3.743000000
O    -0.336000000     1.303000000     4.709000000
O     0.667000000     3.032000000     3.934000000
