17
-92.08268
C     1.744000000     0.532000000     2.054000000
H     2.563000000     1.172000000     2.374000000
C     1.218000000     0.602000000     0.726000000
H     1.616000000     1.296000000    -0.010000000
C     0.209000000    -0.237000000     0.359000000
C    -0.342000000    -0.130000000    -1.041000000
H    -0.566000000    -1.144000000    -1.379000000
H    -1.271000000     0.441000000    -0.987000000
H     0.274000000     0.440000000    -1.740000000
C    -0.228000000    -1.182000000     1.340000000
H    -1.093000000    -1.790000000     1.088000000
C     0.227000000    -1.235000000     2.661000000
H    -0.162000000    -1.939000000     3.392000000
C     1.231000000    -0.381000000     2.997000000
C     1.716000000    -0.546000000     4.472000000
O     1.409000000    -1.593000000     5.062000000
O     1.942000000     0.451000000     5.165000000
