17
-94.53318
C    -0.049000000     1.222000000     2.387000000
H     0.138000000     2.269000000     2.613000000
C    -0.150000000     0.892000000     1.060000000
H    -0.133000000     1.723000000     0.359000000
C    -0.212000000    -0.403000000     0.542000000
C    -0.317000000    -0.604000000    -0.945000000
H     0.658000000    -0.588000000    -1.436000000
H    -0.766000000    -1.559000000    -1.227000000
H    -0.882000000     0.217000000    -1.389000000
C    -0.141000000    -1.397000000     1.467000000
H    -0.332000000    -2.424000000     1.166000000
C     0.109000000    -1.102000000     2.793000000
H     0.247000000    -1.927000000     3.487000000
C     0.160000000     0.152000000     3.313000000
C     0.221000000     0.515000000     4.760000000
O     0.330000000    -0.421000000     5.552000000
O     0.072000000     1.646000000     5.128000000
