17
-99.14718
C    -0.282000000     1.041000000     2.426000000
H    -0.030000000     1.998000000     2.873000000
C    -0.068000000     0.785000000     1.056000000
H     0.333000000     1.546000000     0.391000000
C    -0.414000000    -0.493000000     0.490000000
C    -0.130000000    -0.793000000    -0.952000000
H     0.774000000    -1.405000000    -0.995000000
H    -0.991000000    -1.179000000    -1.501000000
H     0.161000000     0.098000000    -1.512000000
C    -0.861000000    -1.519000000     1.351000000
H    -1.077000000    -2.510000000     0.960000000
C    -1.012000000    -1.225000000     2.724000000
H    -1.398000000    -1.978000000     3.406000000
C    -0.869000000     0.056000000     3.217000000
C    -1.136000000     0.332000000     4.684000000
O    -1.467000000    -0.605000000     5.424000000
O    -0.902000000     1.411000000     5.248000000
