17
-102.52649
C    -0.722000000     1.968000000     2.054000000
H    -0.619000000     3.042000000     2.193000000
C    -0.223000000     1.437000000     0.878000000
H     0.220000000     2.100000000     0.139000000
C    -0.244000000     0.096000000     0.651000000
C     0.307000000    -0.537000000    -0.594000000
H     0.418000000     0.228000000    -1.365000000
H     1.232000000    -1.095000000    -0.437000000
H    -0.421000000    -1.263000000    -0.961000000
C    -0.784000000    -0.755000000     1.650000000
H    -0.898000000    -1.822000000     1.476000000
C    -1.311000000    -0.252000000     2.836000000
H    -1.821000000    -0.968000000     3.475000000
C    -1.176000000     1.126000000     3.066000000
C    -1.699000000     1.660000000     4.402000000
O    -2.107000000     0.883000000     5.262000000
O    -1.697000000     2.876000000     4.530000000
