17
-89.93442
C     0.998000000     1.886000000     1.297000000
H     1.442000000     2.873000000     1.393000000
C     0.907000000     1.257000000     0.060000000
H     1.369000000     1.762000000    -0.784000000
C     0.204000000     0.058000000    -0.031000000
C     0.240000000    -0.827000000    -1.312000000
H     0.834000000    -0.385000000    -2.114000000
H     0.589000000    -1.855000000    -1.200000000
H    -0.748000000    -0.997000000    -1.745000000
C    -0.490000000    -0.403000000     1.059000000
H    -1.060000000    -1.326000000     0.992000000
C    -0.468000000     0.361000000     2.292000000
H    -0.993000000    -0.014000000     3.167000000
C     0.307000000     1.460000000     2.421000000
C     0.496000000     2.242000000     3.751000000
O    -0.174000000     1.925000000     4.758000000
O     0.981000000     3.340000000     3.778000000
