17
-95.40567
C    -2.264000000    -0.239000000     1.094000000
H    -3.063000000     0.191000000     1.692000000
C    -1.222000000     0.582000000     0.722000000
H    -1.216000000     1.598000000     1.108000000
C    -0.168000000     0.049000000    -0.028000000
C     0.852000000     1.023000000    -0.507000000
H     1.226000000     1.666000000     0.293000000
H     1.658000000     0.447000000    -0.966000000
H     0.430000000     1.661000000    -1.286000000
C    -0.183000000    -1.270000000    -0.415000000
H     0.639000000    -1.608000000    -1.042000000
C    -1.204000000    -2.078000000    -0.044000000
H    -1.197000000    -3.141000000    -0.271000000
C    -2.296000000    -1.603000000     0.740000000
C    -3.362000000    -2.546000000     1.229000000
O    -3.421000000    -3.698000000     0.947000000
O    -4.185000000    -2.113000000     2.038000000
