17
-89.16656
C     1.226000000     1.328000000     1.768000000
H     2.021000000     1.987000000     2.107000000
C     0.969000000     0.857000000     0.490000000
H     1.575000000     1.357000000    -0.261000000
C     0.043000000    -0.164000000     0.246000000
C     0.014000000    -0.800000000    -1.079000000
H    -0.205000000    -0.137000000    -1.919000000
H     1.004000000    -1.226000000    -1.254000000
H    -0.615000000    -1.692000000    -1.107000000
C    -0.747000000    -0.608000000     1.309000000
H    -1.546000000    -1.295000000     1.046000000
C    -0.632000000    -0.090000000     2.569000000
H    -1.258000000    -0.407000000     3.399000000
C     0.400000000     0.872000000     2.861000000
C     0.526000000     1.502000000     4.174000000
O    -0.368000000     1.367000000     4.923000000
O     1.458000000     2.244000000     4.463000000
