17
-97.58761
C     1.027000000     1.737000000     2.198000000
H     1.536000000     2.660000000     2.462000000
C     0.589000000     1.541000000     0.929000000
H     0.821000000     2.232000000     0.123000000
C    -0.046000000     0.370000000     0.522000000
C    -0.386000000     0.022000000    -0.906000000
H     0.331000000     0.466000000    -1.599000000
H    -0.479000000    -1.045000000    -1.118000000
H    -1.366000000     0.453000000    -1.123000000
C    -0.241000000    -0.607000000     1.473000000
H    -0.704000000    -1.555000000     1.213000000
C     0.071000000    -0.379000000     2.800000000
H    -0.160000000    -1.090000000     3.589000000
C     0.790000000     0.771000000     3.205000000
C     1.150000000     1.033000000     4.655000000
O     0.797000000     0.143000000     5.405000000
O     1.554000000     2.090000000     5.055000000
