17
-94.80485
C     0.780000000     1.358000000     1.645000000
H     1.296000000     2.270000000     1.934000000
C     0.549000000     0.950000000     0.298000000
H     0.926000000     1.554000000    -0.523000000
C    -0.159000000    -0.226000000     0.025000000
C    -0.256000000    -0.776000000    -1.370000000
H     0.171000000    -1.776000000    -1.468000000
H    -1.216000000    -0.483000000    -1.800000000
H     0.490000000    -0.264000000    -1.983000000
C    -0.811000000    -0.907000000     1.004000000
H    -1.501000000    -1.709000000     0.758000000
C    -0.609000000    -0.493000000     2.346000000
H    -1.092000000    -1.042000000     3.150000000
C     0.239000000     0.568000000     2.654000000
C     0.618000000     0.897000000     4.045000000
O     0.244000000     0.160000000     4.976000000
O     1.126000000     1.967000000     4.311000000
