17
-96.66962
C     0.592000000     1.734000000     1.720000000
H     0.958000000     2.737000000     1.926000000
C     0.689000000     1.165000000     0.421000000
H     1.182000000     1.736000000    -0.362000000
C     0.230000000    -0.092000000     0.179000000
C     0.386000000    -0.585000000    -1.271000000
H     1.174000000    -1.336000000    -1.355000000
H    -0.459000000    -1.156000000    -1.661000000
H     0.516000000     0.194000000    -2.026000000
C    -0.420000000    -0.793000000     1.162000000
H    -0.685000000    -1.813000000     0.894000000
C    -0.544000000    -0.204000000     2.403000000
H    -1.013000000    -0.806000000     3.177000000
C    -0.063000000     1.093000000     2.759000000
C    -0.118000000     1.658000000     4.175000000
O    -0.749000000     1.025000000     5.000000000
O     0.444000000     2.696000000     4.443000000
