17
-97.35415
C     1.084000000     1.737000000     2.224000000
H     1.686000000     2.586000000     2.539000000
C     0.897000000     1.313000000     0.910000000
H     1.386000000     1.785000000     0.061000000
C     0.104000000     0.228000000     0.704000000
C    -0.130000000    -0.302000000    -0.686000000
H     0.085000000    -1.369000000    -0.775000000
H    -1.155000000    -0.147000000    -1.031000000
H     0.652000000    -0.055000000    -1.407000000
C    -0.405000000    -0.482000000     1.736000000
H    -1.087000000    -1.279000000     1.454000000
C    -0.137000000    -0.154000000     3.055000000
H    -0.623000000    -0.654000000     3.889000000
C     0.612000000     1.007000000     3.333000000
C     0.972000000     1.444000000     4.736000000
O     0.220000000     1.064000000     5.648000000
O     1.956000000     2.167000000     4.936000000
