17
-92.50844
C     1.180000000     1.630000000     2.191000000
H     1.628000000     2.583000000     2.461000000
C     0.730000000     1.421000000     0.893000000
H     0.968000000     2.133000000     0.108000000
C     0.047000000     0.243000000     0.577000000
C    -0.196000000    -0.076000000    -0.889000000
H    -0.472000000    -1.099000000    -1.153000000
H    -1.100000000     0.437000000    -1.224000000
H     0.652000000     0.199000000    -1.519000000
C    -0.231000000    -0.684000000     1.628000000
H    -0.680000000    -1.650000000     1.412000000
C     0.184000000    -0.427000000     2.919000000
H     0.104000000    -1.174000000     3.705000000
C     0.796000000     0.779000000     3.243000000
C     1.177000000     1.072000000     4.656000000
O     0.779000000     0.382000000     5.583000000
O     1.512000000     2.234000000     4.975000000
