17
-93.30763
C    -2.616000000    -0.297000000     0.667000000
H    -3.489000000     0.215000000     1.065000000
C    -1.394000000     0.396000000     0.475000000
H    -1.380000000     1.483000000     0.493000000
C    -0.289000000    -0.233000000    -0.031000000
C     0.844000000     0.616000000    -0.496000000
H     1.605000000     0.729000000     0.280000000
H     1.335000000     0.205000000    -1.380000000
H     0.592000000     1.628000000    -0.818000000
C    -0.370000000    -1.590000000    -0.346000000
H     0.423000000    -2.010000000    -0.960000000
C    -1.573000000    -2.286000000    -0.245000000
H    -1.563000000    -3.297000000    -0.644000000
C    -2.680000000    -1.638000000     0.318000000
C    -3.993000000    -2.340000000     0.500000000
O    -4.226000000    -3.318000000    -0.107000000
O    -4.676000000    -1.928000000     1.446000000
