17
-95.29452
C     0.350000000     1.677000000     1.785000000
H     0.417000000     2.750000000     1.944000000
C     0.502000000     1.238000000     0.469000000
H     0.725000000     1.917000000    -0.349000000
C     0.216000000    -0.085000000     0.191000000
C     0.198000000    -0.631000000    -1.197000000
H    -0.708000000    -0.332000000    -1.728000000
H     0.997000000    -0.239000000    -1.830000000
H     0.324000000    -1.716000000    -1.210000000
C     0.039000000    -0.955000000     1.240000000
H    -0.010000000    -2.017000000     1.016000000
C    -0.002000000    -0.571000000     2.550000000
H    -0.241000000    -1.338000000     3.282000000
C     0.211000000     0.786000000     2.848000000
C    -0.048000000     1.291000000     4.245000000
O    -0.284000000     0.474000000     5.095000000
O    -0.216000000     2.469000000     4.410000000
