17
-93.25980
C     1.336000000     1.658000000     1.662000000
H     1.914000000     2.577000000     1.714000000
C     0.793000000     1.262000000     0.441000000
H     0.855000000     1.787000000    -0.509000000
C     0.020000000     0.064000000     0.382000000
C    -0.412000000    -0.483000000    -0.885000000
H    -0.349000000    -1.572000000    -0.926000000
H    -1.433000000    -0.114000000    -1.001000000
H     0.092000000    -0.046000000    -1.749000000
C     0.015000000    -0.765000000     1.558000000
H    -0.485000000    -1.730000000     1.530000000
C     0.548000000    -0.342000000     2.775000000
H     0.427000000    -0.989000000     3.640000000
C     1.281000000     0.855000000     2.837000000
C     2.029000000     1.298000000     4.100000000
O     1.909000000     0.574000000     5.103000000
O     2.947000000     2.125000000     4.139000000
