17
-95.19194
C    -0.183000000     1.624000000     1.892000000
H    -0.327000000     2.668000000     2.161000000
C    -0.022000000     1.308000000     0.529000000
H     0.100000000     2.092000000    -0.213000000
C    -0.026000000    -0.012000000     0.164000000
C     0.169000000    -0.349000000    -1.355000000
H    -0.305000000     0.410000000    -1.981000000
H     1.230000000    -0.280000000    -1.607000000
H    -0.199000000    -1.361000000    -1.537000000
C    -0.095000000    -1.045000000     1.122000000
H    -0.083000000    -2.072000000     0.765000000
C    -0.271000000    -0.735000000     2.456000000
H    -0.413000000    -1.539000000     3.174000000
C    -0.350000000     0.626000000     2.878000000
C    -0.498000000     0.957000000     4.385000000
O    -0.951000000     0.208000000     5.212000000
O    -0.392000000     2.140000000     4.710000000
