17
-92.34091
C     0.056000000     1.959000000     2.406000000
H     0.190000000     2.949000000     2.834000000
C     0.074000000     1.805000000     0.982000000
H     0.288000000     2.682000000     0.377000000
C    -0.042000000     0.482000000     0.391000000
C    -0.052000000     0.207000000    -1.093000000
H     0.564000000    -0.665000000    -1.321000000
H    -1.084000000     0.043000000    -1.411000000
H     0.376000000     1.069000000    -1.608000000
C    -0.124000000    -0.609000000     1.232000000
H    -0.291000000    -1.647000000     0.957000000
C    -0.211000000    -0.363000000     2.629000000
H    -0.380000000    -1.188000000     3.316000000
C    -0.156000000     0.855000000     3.236000000
C    -0.411000000     0.972000000     4.688000000
O    -0.762000000     0.017000000     5.338000000
O    -0.305000000     2.035000000     5.233000000
