17
-89.93407
C     0.782000000     1.865000000     1.798000000
H     1.019000000     2.919000000     1.924000000
C     0.634000000     1.350000000     0.530000000
H     0.689000000     2.052000000    -0.299000000
C     0.164000000    -0.034000000     0.381000000
C     0.110000000    -0.494000000    -1.081000000
H     0.117000000    -1.586000000    -1.118000000
H    -0.826000000    -0.190000000    -1.554000000
H     0.908000000    -0.019000000    -1.655000000
C    -0.196000000    -0.801000000     1.467000000
H    -0.670000000    -1.777000000     1.401000000
C     0.003000000    -0.200000000     2.750000000
H    -0.384000000    -0.790000000     3.577000000
C     0.555000000     1.104000000     2.890000000
C     0.662000000     1.602000000     4.284000000
O     0.756000000     0.798000000     5.182000000
O     0.571000000     2.776000000     4.587000000
