17
-94.45893
C    -0.293000000     1.696000000     1.913000000
H    -0.211000000     2.738000000     2.213000000
C     0.014000000     1.408000000     0.598000000
H     0.230000000     2.237000000    -0.070000000
C    -0.098000000     0.116000000     0.132000000
C     0.309000000    -0.295000000    -1.252000000
H     1.126000000    -1.018000000    -1.195000000
H    -0.539000000    -0.738000000    -1.778000000
H     0.654000000     0.571000000    -1.822000000
C    -0.399000000    -0.948000000     1.038000000
H    -0.430000000    -1.969000000     0.665000000
C    -0.533000000    -0.684000000     2.407000000
H    -0.779000000    -1.502000000     3.079000000
C    -0.464000000     0.616000000     2.834000000
C    -0.589000000     0.987000000     4.292000000
O    -1.101000000     0.165000000     5.034000000
O    -0.423000000     2.096000000     4.720000000
