17
-97.22158
C     0.145000000     1.072000000     2.141000000
H     0.370000000     2.020000000     2.624000000
C     0.371000000     1.016000000     0.797000000
H     0.762000000     1.881000000     0.267000000
C     0.054000000    -0.174000000     0.084000000
C     0.453000000    -0.185000000    -1.347000000
H     0.409000000    -1.206000000    -1.731000000
H    -0.150000000     0.390000000    -2.052000000
H     1.509000000     0.094000000    -1.347000000
C    -0.301000000    -1.266000000     0.786000000
H    -0.433000000    -2.235000000     0.312000000
C    -0.485000000    -1.208000000     2.170000000
H    -0.817000000    -2.051000000     2.771000000
C    -0.323000000     0.028000000     2.889000000
C    -0.478000000     0.158000000     4.379000000
O    -0.921000000    -0.830000000     4.986000000
O    -0.154000000     1.216000000     4.837000000
