17
-98.48059
C    -0.465000000     1.679000000     1.440000000
H    -0.350000000     2.756000000     1.536000000
C     0.036000000     1.091000000     0.274000000
H     0.657000000     1.763000000    -0.311000000
C    -0.206000000    -0.233000000    -0.084000000
C     0.260000000    -0.798000000    -1.412000000
H     0.981000000    -0.131000000    -1.889000000
H     0.692000000    -1.794000000    -1.292000000
H    -0.620000000    -0.881000000    -2.053000000
C    -0.859000000    -1.004000000     0.865000000
H    -0.991000000    -2.075000000     0.731000000
C    -1.445000000    -0.373000000     2.005000000
H    -1.917000000    -1.054000000     2.709000000
C    -1.267000000     1.003000000     2.322000000
C    -1.955000000     1.678000000     3.448000000
O    -2.400000000     1.019000000     4.387000000
O    -2.202000000     2.904000000     3.398000000
