17
-89.43554
C    -0.329000000     2.267000000     1.193000000
H    -0.231000000     3.350000000     1.214000000
C     0.196000000     1.572000000     0.104000000
H     0.702000000     2.190000000    -0.632000000
C    -0.042000000     0.247000000    -0.056000000
C     0.467000000    -0.485000000    -1.246000000
H     0.352000000     0.104000000    -2.159000000
H     1.518000000    -0.683000000    -1.022000000
H    -0.042000000    -1.445000000    -1.357000000
C    -0.546000000    -0.485000000     1.043000000
H    -0.469000000    -1.569000000     0.997000000
C    -1.138000000     0.142000000     2.118000000
H    -1.443000000    -0.486000000     2.951000000
C    -1.023000000     1.554000000     2.216000000
C    -1.554000000     2.279000000     3.395000000
O    -2.254000000     1.718000000     4.197000000
O    -1.297000000     3.422000000     3.555000000
