17
-87.38267
C    -0.686000000     2.055000000     1.025000000
H    -0.437000000     3.092000000     1.235000000
C    -0.100000000     1.252000000    -0.006000000
H     0.285000000     1.745000000    -0.895000000
C    -0.225000000    -0.147000000     0.092000000
C     0.341000000    -0.935000000    -1.100000000
H    -0.376000000    -0.605000000    -1.855000000
H     1.307000000    -0.615000000    -1.498000000
H     0.298000000    -2.020000000    -0.989000000
C    -0.891000000    -0.747000000     1.121000000
H    -0.965000000    -1.826000000     1.231000000
C    -1.354000000     0.069000000     2.188000000
H    -1.793000000    -0.442000000     3.041000000
C    -1.369000000     1.430000000     2.110000000
C    -1.956000000     2.171000000     3.206000000
O    -1.772000000     1.737000000     4.312000000
O    -2.520000000     3.218000000     3.003000000
