17
-99.60658
C    -0.490000000     1.796000000     1.535000000
H    -0.331000000     2.857000000     1.708000000
C     0.035000000     1.218000000     0.394000000
H     0.558000000     1.792000000    -0.367000000
C    -0.153000000    -0.158000000     0.115000000
C     0.366000000    -0.808000000    -1.135000000
H     1.455000000    -0.850000000    -1.064000000
H     0.101000000    -1.852000000    -1.316000000
H     0.215000000    -0.169000000    -2.008000000
C    -0.923000000    -0.905000000     1.051000000
H    -0.947000000    -1.986000000     0.944000000
C    -1.455000000    -0.339000000     2.174000000
H    -2.032000000    -0.904000000     2.901000000
C    -1.273000000     1.059000000     2.458000000
C    -1.973000000     1.760000000     3.597000000
O    -2.767000000     1.067000000     4.168000000
O    -1.840000000     2.976000000     3.745000000
