17
-94.33991
C    -1.263000000     1.777000000     2.193000000
H    -1.538000000     2.821000000     2.323000000
C    -0.905000000     1.441000000     0.909000000
H    -0.773000000     2.232000000     0.175000000
C    -0.621000000     0.058000000     0.595000000
C    -0.153000000    -0.312000000    -0.777000000
H     0.935000000    -0.394000000    -0.813000000
H    -0.500000000    -1.333000000    -0.947000000
H    -0.439000000     0.319000000    -1.622000000
C    -0.567000000    -0.842000000     1.667000000
H    -0.165000000    -1.833000000     1.469000000
C    -0.926000000    -0.470000000     2.961000000
H    -0.952000000    -1.165000000     3.796000000
C    -1.310000000     0.877000000     3.247000000
C    -1.739000000     1.190000000     4.640000000
O    -1.744000000     0.338000000     5.515000000
O    -1.890000000     2.337000000     4.972000000
