17
-91.39239
C    -0.256000000     1.727000000     1.659000000
H    -0.094000000     2.732000000     2.039000000
C     0.294000000     1.288000000     0.485000000
H     0.823000000     2.049000000    -0.083000000
C    -0.010000000     0.058000000     0.024000000
C     0.380000000    -0.305000000    -1.400000000
H     1.451000000    -0.435000000    -1.565000000
H    -0.045000000    -1.278000000    -1.657000000
H    -0.057000000     0.483000000    -2.017000000
C    -0.610000000    -0.906000000     0.874000000
H    -0.797000000    -1.919000000     0.526000000
C    -1.206000000    -0.412000000     2.053000000
H    -1.826000000    -1.095000000     2.628000000
C    -1.029000000     0.916000000     2.451000000
C    -1.574000000     1.426000000     3.786000000
O    -2.194000000     0.636000000     4.461000000
O    -1.448000000     2.540000000     4.181000000
