17
-94.85124
C     0.734000000     1.907000000     3.262000000
H     0.528000000     2.791000000     3.859000000
C     0.435000000     1.887000000     1.908000000
H     0.055000000     2.771000000     1.403000000
C     0.655000000     0.723000000     1.145000000
C     0.351000000     0.710000000    -0.324000000
H    -0.490000000     0.024000000    -0.445000000
H     0.111000000     1.729000000    -0.636000000
H     1.225000000     0.316000000    -0.847000000
C     1.177000000    -0.407000000     1.778000000
H     1.291000000    -1.383000000     1.313000000
C     1.523000000    -0.406000000     3.125000000
H     1.892000000    -1.286000000     3.647000000
C     1.151000000     0.736000000     3.840000000
C     1.368000000     0.709000000     5.348000000
O     1.403000000    -0.320000000     6.031000000
O     1.680000000     1.726000000     5.945000000
