17
-99.62650
C    -0.310000000     0.858000000     2.744000000
H    -0.125000000     1.732000000     3.363000000
C    -0.184000000     0.885000000     1.336000000
H     0.138000000     1.821000000     0.887000000
C    -0.376000000    -0.258000000     0.609000000
C    -0.092000000    -0.120000000    -0.840000000
H     0.982000000    -0.298000000    -0.926000000
H    -0.684000000    -0.825000000    -1.426000000
H    -0.368000000     0.898000000    -1.126000000
C    -0.724000000    -1.434000000     1.259000000
H    -0.890000000    -2.380000000     0.750000000
C    -0.876000000    -1.454000000     2.666000000
H    -1.168000000    -2.401000000     3.112000000
C    -0.661000000    -0.310000000     3.447000000
C    -0.682000000    -0.380000000     4.968000000
O    -0.923000000    -1.472000000     5.534000000
O    -0.356000000     0.573000000     5.636000000
