17
-95.10787
C     0.472000000     1.445000000     2.405000000
H     0.542000000     2.401000000     2.917000000
C     0.385000000     1.328000000     1.033000000
H     0.617000000     2.285000000     0.572000000
C     0.226000000     0.183000000     0.319000000
C     0.292000000     0.059000000    -1.206000000
H    -0.045000000     1.027000000    -1.584000000
H     1.290000000    -0.149000000    -1.597000000
H    -0.354000000    -0.764000000    -1.516000000
C     0.165000000    -1.005000000     1.096000000
H     0.017000000    -1.963000000     0.606000000
C     0.233000000    -0.946000000     2.496000000
H     0.207000000    -1.854000000     3.094000000
C     0.433000000     0.242000000     3.198000000
C     0.450000000     0.264000000     4.698000000
O     0.219000000    -0.774000000     5.266000000
O     0.679000000     1.278000000     5.357000000
