17
-93.83094
C     0.929000000     1.527000000     1.599000000
H     1.134000000     2.534000000     1.951000000
C     0.485000000     1.262000000     0.295000000
H     0.545000000     2.064000000    -0.436000000
C     0.087000000    -0.079000000    -0.055000000
C    -0.235000000    -0.479000000    -1.498000000
H     0.404000000     0.134000000    -2.138000000
H     0.067000000    -1.519000000    -1.637000000
H    -1.294000000    -0.329000000    -1.718000000
C     0.149000000    -1.044000000     0.957000000
H    -0.266000000    -2.030000000     0.767000000
C     0.455000000    -0.713000000     2.262000000
H     0.536000000    -1.586000000     2.905000000
C     0.920000000     0.517000000     2.597000000
C     1.358000000     0.844000000     4.002000000
O     1.401000000     0.002000000     4.883000000
O     1.730000000     1.957000000     4.192000000
