17
-91.11349
C     0.551000000    -2.605000000     0.344000000
H     0.461000000    -3.587000000    -0.115000000
C    -0.255000000    -1.565000000    -0.124000000
H    -1.016000000    -1.959000000    -0.792000000
C    -0.084000000    -0.262000000     0.283000000
C    -0.898000000     0.831000000    -0.406000000
H    -0.890000000     1.816000000     0.066000000
H    -0.392000000     0.952000000    -1.366000000
H    -1.935000000     0.507000000    -0.517000000
C     0.943000000     0.023000000     1.138000000
H     1.320000000     1.035000000     1.255000000
C     1.678000000    -1.080000000     1.646000000
H     2.579000000    -0.753000000     2.159000000
C     1.525000000    -2.405000000     1.287000000
C     2.444000000    -3.557000000     1.680000000
O     3.528000000    -3.191000000     2.039000000
O     2.179000000    -4.721000000     1.332000000
