17
-95.27626
C     0.781000000     1.423000000     2.195000000
H     1.000000000     2.407000000     2.601000000
C     0.507000000     1.218000000     0.843000000
H     0.447000000     2.102000000     0.213000000
C     0.269000000    -0.014000000     0.235000000
C     0.089000000    -0.088000000    -1.298000000
H     0.120000000     0.912000000    -1.736000000
H     0.910000000    -0.624000000    -1.778000000
H    -0.867000000    -0.570000000    -1.513000000
C     0.286000000    -1.144000000     1.036000000
H     0.209000000    -2.135000000     0.594000000
C     0.535000000    -1.029000000     2.416000000
H     0.637000000    -1.949000000     2.986000000
C     0.852000000     0.225000000     3.016000000
C     1.050000000     0.405000000     4.537000000
O     0.920000000    -0.523000000     5.370000000
O     1.506000000     1.443000000     4.955000000
