17
-97.31232
C     1.867000000     1.115000000     1.857000000
H     2.428000000     1.986000000     2.188000000
C     1.221000000     1.165000000     0.637000000
H     1.238000000     2.056000000     0.016000000
C     0.528000000     0.063000000     0.146000000
C    -0.110000000     0.238000000    -1.230000000
H    -0.927000000    -0.462000000    -1.418000000
H    -0.554000000     1.225000000    -1.374000000
H     0.677000000    -0.027000000    -1.939000000
C     0.428000000    -1.077000000     0.848000000
H    -0.144000000    -1.922000000     0.476000000
C     0.939000000    -1.074000000     2.162000000
H     0.701000000    -1.946000000     2.766000000
C     1.721000000    -0.015000000     2.617000000
C     2.484000000    -0.089000000     3.977000000
O     2.540000000    -1.156000000     4.581000000
O     3.000000000     0.893000000     4.487000000
