17
-93.18182
C     1.184000000     1.896000000     2.137000000
H     1.149000000     2.941000000     2.433000000
C     0.555000000     1.597000000     0.956000000
H     0.102000000     2.406000000     0.390000000
C     0.506000000     0.292000000     0.510000000
C     0.043000000     0.035000000    -0.893000000
H    -0.999000000     0.325000000    -1.042000000
H     0.679000000     0.585000000    -1.590000000
H    -0.024000000    -1.026000000    -1.140000000
C     0.986000000    -0.702000000     1.374000000
H     0.857000000    -1.734000000     1.056000000
C     1.424000000    -0.440000000     2.659000000
H     1.945000000    -1.204000000     3.230000000
C     1.550000000     0.903000000     3.015000000
C     2.190000000     1.297000000     4.300000000
O     2.489000000     0.455000000     5.129000000
O     2.138000000     2.472000000     4.622000000
