17
-97.05879
C     1.130000000     1.419000000     1.722000000
H     1.190000000     2.471000000     1.990000000
C     0.431000000     1.104000000     0.575000000
H    -0.118000000     1.895000000     0.072000000
C     0.477000000    -0.179000000     0.079000000
C    -0.117000000    -0.377000000    -1.323000000
H    -0.291000000    -1.399000000    -1.666000000
H    -1.094000000     0.110000000    -1.346000000
H     0.545000000     0.106000000    -2.045000000
C     1.090000000    -1.224000000     0.753000000
H     1.020000000    -2.259000000     0.428000000
C     1.725000000    -0.881000000     1.979000000
H     2.200000000    -1.720000000     2.481000000
C     1.775000000     0.426000000     2.444000000
C     2.535000000     0.643000000     3.732000000
O     2.866000000    -0.323000000     4.389000000
O     2.554000000     1.756000000     4.261000000
