17
-94.29236
C     0.815000000     1.320000000     2.022000000
H     1.155000000     2.318000000     2.285000000
C     0.401000000     1.130000000     0.690000000
H     0.305000000     2.007000000     0.055000000
C     0.062000000    -0.161000000     0.243000000
C    -0.134000000    -0.396000000    -1.262000000
H     0.539000000     0.061000000    -1.990000000
H    -0.119000000    -1.482000000    -1.381000000
H    -1.156000000    -0.140000000    -1.548000000
C     0.058000000    -1.205000000     1.139000000
H     0.020000000    -2.244000000     0.824000000
C     0.368000000    -1.010000000     2.490000000
H     0.421000000    -1.848000000     3.180000000
C     0.685000000     0.250000000     3.006000000
C     0.895000000     0.440000000     4.466000000
O     0.688000000    -0.526000000     5.207000000
O     1.346000000     1.470000000     4.852000000
