17
-87.95904
C     0.920000000     1.868000000     2.312000000
H     0.789000000     2.874000000     2.702000000
C     0.439000000     1.537000000     1.070000000
H    -0.063000000     2.315000000     0.501000000
C     0.428000000     0.267000000     0.604000000
C    -0.026000000    -0.097000000    -0.779000000
H     0.587000000    -0.932000000    -1.123000000
H    -1.092000000    -0.329000000    -0.823000000
H     0.095000000     0.667000000    -1.550000000
C     0.933000000    -0.731000000     1.382000000
H     0.807000000    -1.771000000     1.093000000
C     1.220000000    -0.488000000     2.690000000
H     1.374000000    -1.347000000     3.338000000
C     1.390000000     0.842000000     3.159000000
C     1.601000000     1.160000000     4.639000000
O     1.895000000     0.192000000     5.405000000
O     1.678000000     2.258000000     5.092000000
