17
-79.54409
C     1.725000000     0.871000000     2.194000000
H     2.160000000     1.761000000     2.643000000
C     1.159000000     0.920000000     0.915000000
H     1.224000000     1.813000000     0.299000000
C     0.722000000    -0.251000000     0.334000000
C    -0.002000000    -0.259000000    -0.946000000
H    -0.186000000     0.772000000    -1.255000000
H     0.728000000    -0.623000000    -1.672000000
H    -0.949000000    -0.791000000    -1.059000000
C     0.668000000    -1.378000000     1.126000000
H     0.342000000    -2.326000000     0.706000000
C     1.060000000    -1.344000000     2.498000000
H     0.914000000    -2.260000000     3.065000000
C     1.585000000    -0.189000000     3.029000000
C     1.615000000     0.008000000     4.508000000
O     1.355000000    -0.850000000     5.263000000
O     1.798000000     1.098000000     5.007000000
