17
-97.31603
C     0.668000000     1.500000000     2.422000000
H     0.621000000     2.516000000     2.805000000
C     0.498000000     1.267000000     1.100000000
H     0.227000000     2.098000000     0.453000000
C     0.508000000    -0.007000000     0.621000000
C     0.220000000    -0.250000000    -0.780000000
H     1.022000000    -0.885000000    -1.161000000
H    -0.722000000    -0.802000000    -0.817000000
H     0.023000000     0.645000000    -1.374000000
C     0.743000000    -1.129000000     1.483000000
H     0.696000000    -2.100000000     0.998000000
C     0.863000000    -0.902000000     2.851000000
H     1.025000000    -1.683000000     3.590000000
C     0.947000000     0.400000000     3.314000000
C     1.157000000     0.690000000     4.812000000
O     1.375000000    -0.227000000     5.591000000
O     0.915000000     1.855000000     5.229000000
