17
-86.60388
C    -1.080000000     1.878000000     1.649000000
H    -1.523000000     2.868000000     1.716000000
C    -0.480000000     1.469000000     0.435000000
H    -0.396000000     2.246000000    -0.322000000
C    -0.142000000     0.186000000     0.262000000
C     0.350000000    -0.290000000    -1.145000000
H    -0.080000000    -1.256000000    -1.418000000
H     0.022000000     0.471000000    -1.855000000
H     1.438000000    -0.369000000    -1.195000000
C    -0.433000000    -0.759000000     1.236000000
H    -0.142000000    -1.798000000     1.107000000
C    -0.911000000    -0.353000000     2.464000000
H    -1.117000000    -1.156000000     3.167000000
C    -1.180000000     1.036000000     2.720000000
C    -1.725000000     1.429000000     4.055000000
O    -1.607000000     0.747000000     5.027000000
O    -2.257000000     2.484000000     4.185000000
