17
-87.40781
C     1.273000000     1.047000000     2.490000000
H     1.689000000     1.982000000     2.856000000
C     0.805000000     0.976000000     1.216000000
H     0.884000000     1.880000000     0.617000000
C     0.252000000    -0.149000000     0.722000000
C    -0.200000000    -0.216000000    -0.643000000
H    -0.924000000    -0.985000000    -0.922000000
H    -0.533000000     0.732000000    -1.073000000
H     0.722000000    -0.495000000    -1.156000000
C     0.030000000    -1.269000000     1.581000000
H    -0.518000000    -2.124000000     1.195000000
C     0.385000000    -1.123000000     2.966000000
H     0.184000000    -1.970000000     3.618000000
C     1.023000000     0.006000000     3.446000000
C     1.506000000     0.171000000     4.863000000
O     1.187000000    -0.574000000     5.756000000
O     2.288000000     1.038000000     5.130000000
