17
-91.19002
C    -0.678000000     2.000000000     1.897000000
H    -0.968000000     3.023000000     2.121000000
C    -0.634000000     1.531000000     0.582000000
H    -0.863000000     2.195000000    -0.248000000
C    -0.172000000     0.207000000     0.359000000
C    -0.218000000    -0.363000000    -1.009000000
H     0.125000000     0.377000000    -1.735000000
H     0.398000000    -1.263000000    -1.049000000
H    -1.252000000    -0.561000000    -1.298000000
C     0.173000000    -0.582000000     1.452000000
H     0.386000000    -1.645000000     1.377000000
C     0.039000000    -0.091000000     2.731000000
H     0.333000000    -0.724000000     3.564000000
C    -0.357000000     1.153000000     2.969000000
C    -0.299000000     1.631000000     4.418000000
O     0.308000000     1.085000000     5.263000000
O    -0.650000000     2.815000000     4.611000000
