17
-97.24162
C    -0.824000000     1.599000000     1.749000000
H    -1.164000000     2.614000000     1.937000000
C    -0.640000000     1.166000000     0.459000000
H    -0.872000000     1.911000000    -0.299000000
C    -0.178000000    -0.094000000     0.102000000
C     0.076000000    -0.591000000    -1.343000000
H    -0.083000000     0.188000000    -2.092000000
H     1.112000000    -0.935000000    -1.344000000
H    -0.687000000    -1.306000000    -1.659000000
C     0.118000000    -0.987000000     1.141000000
H     0.516000000    -1.978000000     0.939000000
C    -0.164000000    -0.624000000     2.489000000
H     0.037000000    -1.394000000     3.229000000
C    -0.692000000     0.666000000     2.803000000
C    -1.019000000     0.952000000     4.249000000
O    -0.673000000     0.155000000     5.098000000
O    -1.796000000     1.868000000     4.542000000
