17
-98.31785
C    -0.785000000     1.131000000     2.197000000
H    -0.814000000     2.136000000     2.611000000
C    -0.547000000     1.025000000     0.806000000
H    -0.430000000     1.922000000     0.203000000
C    -0.193000000    -0.223000000     0.330000000
C     0.058000000    -0.418000000    -1.115000000
H    -0.147000000     0.513000000    -1.648000000
H     1.069000000    -0.698000000    -1.417000000
H    -0.659000000    -1.148000000    -1.496000000
C    -0.227000000    -1.326000000     1.175000000
H    -0.071000000    -2.286000000     0.691000000
C    -0.420000000    -1.197000000     2.551000000
H    -0.284000000    -2.037000000     3.227000000
C    -0.750000000     0.053000000     3.074000000
C    -0.972000000     0.204000000     4.588000000
O    -0.986000000    -0.810000000     5.287000000
O    -1.006000000     1.293000000     5.074000000
