17
-96.52125
C    -0.481000000     1.673000000     1.879000000
H    -0.501000000     2.737000000     2.100000000
C    -0.385000000     1.273000000     0.566000000
H    -0.258000000     2.033000000    -0.201000000
C    -0.356000000    -0.025000000     0.164000000
C    -0.194000000    -0.366000000    -1.303000000
H    -0.614000000    -1.349000000    -1.523000000
H    -0.800000000     0.325000000    -1.892000000
H     0.863000000    -0.298000000    -1.570000000
C    -0.369000000    -1.082000000     1.169000000
H    -0.258000000    -2.136000000     0.926000000
C    -0.544000000    -0.648000000     2.529000000
H    -0.646000000    -1.372000000     3.334000000
C    -0.535000000     0.680000000     2.851000000
C    -0.710000000     1.187000000     4.320000000
O    -1.063000000     0.343000000     5.126000000
O    -0.435000000     2.303000000     4.646000000
