17
-94.43349
C    -0.268000000     1.998000000     2.126000000
H    -0.454000000     3.044000000     2.356000000
C    -0.164000000     1.670000000     0.821000000
H    -0.042000000     2.451000000     0.075000000
C    -0.079000000     0.361000000     0.407000000
C     0.122000000     0.031000000    -1.012000000
H     1.104000000    -0.378000000    -1.258000000
H    -0.674000000    -0.677000000    -1.254000000
H    -0.110000000     0.858000000    -1.687000000
C    -0.306000000    -0.679000000     1.345000000
H    -0.407000000    -1.727000000     1.075000000
C    -0.593000000    -0.340000000     2.695000000
H    -0.868000000    -1.058000000     3.464000000
C    -0.465000000     1.025000000     3.087000000
C    -0.591000000     1.420000000     4.567000000
O    -0.825000000     0.563000000     5.438000000
O    -0.165000000     2.506000000     4.902000000
