17
-97.58668
C    -0.652000000    -0.927000000     2.503000000
H    -1.505000000    -0.947000000     3.177000000
C    -0.814000000    -0.543000000     1.174000000
H    -1.777000000    -0.235000000     0.775000000
C     0.279000000    -0.498000000     0.356000000
C     0.185000000     0.020000000    -1.032000000
H    -0.722000000    -0.342000000    -1.521000000
H     0.168000000     1.110000000    -0.979000000
H     1.054000000    -0.244000000    -1.639000000
C     1.506000000    -0.634000000     0.964000000
H     2.354000000    -0.291000000     0.377000000
C     1.680000000    -0.888000000     2.304000000
H     2.693000000    -0.945000000     2.693000000
C     0.589000000    -1.095000000     3.127000000
C     0.824000000    -1.257000000     4.640000000
O     1.922000000    -1.684000000     4.992000000
O    -0.035000000    -0.911000000     5.483000000
