17
-94.34933
C    -1.668000000    -0.563000000     2.323000000
H    -2.301000000    -0.062000000     3.051000000
C    -0.804000000     0.247000000     1.554000000
H    -0.762000000     1.322000000     1.706000000
C     0.015000000    -0.372000000     0.636000000
C     1.022000000     0.529000000    -0.119000000
H     1.677000000     1.139000000     0.506000000
H     1.741000000    -0.067000000    -0.685000000
H     0.572000000     1.190000000    -0.863000000
C    -0.050000000    -1.761000000     0.491000000
H     0.686000000    -2.098000000    -0.234000000
C    -0.917000000    -2.586000000     1.200000000
H    -0.880000000    -3.667000000     1.093000000
C    -1.692000000    -1.957000000     2.169000000
C    -2.459000000    -2.744000000     3.173000000
O    -2.525000000    -3.919000000     3.005000000
O    -3.123000000    -2.190000000     4.044000000
