17
-94.92036
C    -1.340000000    -0.724000000     2.327000000
H    -2.301000000    -0.906000000     2.803000000
C    -1.331000000    -0.538000000     0.970000000
H    -2.285000000    -0.501000000     0.450000000
C    -0.150000000    -0.263000000     0.214000000
C    -0.130000000     0.098000000    -1.177000000
H     0.480000000    -0.618000000    -1.730000000
H    -1.113000000    -0.056000000    -1.626000000
H     0.202000000     1.130000000    -1.305000000
C     1.042000000    -0.369000000     0.921000000
H     2.029000000    -0.186000000     0.502000000
C     1.043000000    -0.599000000     2.281000000
H     1.984000000    -0.544000000     2.821000000
C    -0.129000000    -0.775000000     3.022000000
C    -0.155000000    -0.917000000     4.575000000
O     0.917000000    -0.893000000     5.180000000
O    -1.190000000    -0.627000000     5.187000000
