17
-96.05218
C    -1.614000000    -0.510000000     2.495000000
H    -2.620000000    -0.498000000     2.908000000
C    -1.594000000    -0.357000000     1.104000000
H    -2.445000000    -0.195000000     0.448000000
C    -0.340000000    -0.501000000     0.424000000
C    -0.293000000    -0.177000000    -1.000000000
H    -1.298000000    -0.098000000    -1.419000000
H     0.319000000     0.720000000    -1.116000000
H     0.185000000    -0.965000000    -1.585000000
C     0.827000000    -0.677000000     1.198000000
H     1.761000000    -0.733000000     0.645000000
C     0.779000000    -0.826000000     2.570000000
H     1.622000000    -1.150000000     3.176000000
C    -0.456000000    -0.714000000     3.291000000
C    -0.480000000    -1.012000000     4.731000000
O     0.576000000    -1.025000000     5.353000000
O    -1.533000000    -1.279000000     5.269000000
