17
-91.37024
C    -1.981000000     0.029000000     2.798000000
H    -2.965000000     0.183000000     3.233000000
C    -1.686000000     0.435000000     1.476000000
H    -2.489000000     0.882000000     0.895000000
C    -0.405000000     0.011000000     0.901000000
C    -0.016000000     0.208000000    -0.573000000
H     0.162000000     1.260000000    -0.806000000
H     0.957000000    -0.228000000    -0.807000000
H    -0.808000000    -0.115000000    -1.251000000
C     0.408000000    -0.758000000     1.683000000
H     1.362000000    -1.128000000     1.316000000
C     0.016000000    -1.135000000     2.959000000
H     0.639000000    -1.840000000     3.504000000
C    -1.142000000    -0.680000000     3.581000000
C    -1.470000000    -1.288000000     5.004000000
O    -0.643000000    -1.980000000     5.507000000
O    -2.457000000    -0.878000000     5.568000000
