17
-97.21663
C    -1.138000000    -0.947000000     2.564000000
H    -2.134000000    -0.971000000     2.999000000
C    -0.973000000    -0.740000000     1.223000000
H    -1.821000000    -0.638000000     0.550000000
C     0.305000000    -0.724000000     0.685000000
C     0.474000000    -0.491000000    -0.757000000
H     0.160000000     0.535000000    -0.959000000
H     1.480000000    -0.443000000    -1.178000000
H    -0.135000000    -1.229000000    -1.284000000
C     1.384000000    -0.816000000     1.610000000
H     2.384000000    -0.800000000     1.184000000
C     1.179000000    -1.110000000     2.952000000
H     1.926000000    -1.276000000     3.724000000
C    -0.074000000    -1.213000000     3.456000000
C    -0.358000000    -1.530000000     4.905000000
O     0.575000000    -1.847000000     5.674000000
O    -1.490000000    -1.435000000     5.387000000
