17
-92.95533
C    -0.728000000    -1.051000000     2.775000000
H    -1.545000000    -1.262000000     3.460000000
C    -1.000000000    -0.477000000     1.523000000
H    -2.031000000    -0.363000000     1.199000000
C     0.126000000    -0.203000000     0.737000000
C    -0.120000000     0.290000000    -0.668000000
H    -1.089000000     0.006000000    -1.083000000
H    -0.125000000     1.382000000    -0.684000000
H     0.719000000     0.005000000    -1.305000000
C     1.438000000    -0.355000000     1.163000000
H     2.260000000    -0.127000000     0.489000000
C     1.705000000    -0.957000000     2.380000000
H     2.689000000    -1.188000000     2.779000000
C     0.577000000    -1.274000000     3.204000000
C     0.767000000    -1.879000000     4.605000000
O     1.859000000    -2.160000000     4.934000000
O    -0.144000000    -2.138000000     5.354000000
