17
-91.72336
C    -1.393000000     0.035000000     2.313000000
H    -2.365000000     0.163000000     2.782000000
C    -1.228000000    -0.029000000     0.948000000
H    -2.053000000    -0.144000000     0.250000000
C     0.046000000    -0.066000000     0.372000000
C     0.105000000    -0.157000000    -1.156000000
H     1.118000000    -0.163000000    -1.564000000
H    -0.278000000    -1.106000000    -1.537000000
H    -0.323000000     0.719000000    -1.649000000
C     1.172000000    -0.074000000     1.177000000
H     2.175000000    -0.034000000     0.760000000
C     1.016000000     0.031000000     2.588000000
H     1.879000000     0.015000000     3.249000000
C    -0.245000000     0.059000000     3.149000000
C    -0.386000000     0.120000000     4.710000000
O     0.630000000     0.079000000     5.420000000
O    -1.396000000     0.087000000     5.372000000
