17
-86.69747
C    -0.032000000     0.377000000     3.034000000
H    -0.715000000     0.759000000     3.788000000
C    -0.429000000     0.343000000     1.705000000
H    -1.405000000     0.691000000     1.379000000
C     0.452000000    -0.019000000     0.713000000
C    -0.029000000     0.116000000    -0.718000000
H    -1.066000000    -0.195000000    -0.857000000
H     0.002000000     1.169000000    -1.003000000
H     0.628000000    -0.334000000    -1.466000000
C     1.755000000    -0.286000000     1.005000000
H     2.498000000    -0.580000000     0.268000000
C     2.074000000    -0.458000000     2.341000000
H     3.049000000    -0.878000000     2.576000000
C     1.197000000    -0.126000000     3.327000000
C     1.654000000    -0.204000000     4.709000000
O     2.764000000    -0.714000000     4.988000000
O     0.989000000     0.087000000     5.645000000
