17
-95.79530
C    -0.484000000    -1.201000000     2.582000000
H    -1.259000000    -1.575000000     3.246000000
C    -0.917000000    -0.679000000     1.382000000
H    -1.949000000    -0.659000000     1.040000000
C     0.056000000    -0.231000000     0.451000000
C    -0.258000000     0.239000000    -0.982000000
H     0.411000000    -0.260000000    -1.686000000
H    -1.286000000     0.052000000    -1.300000000
H    -0.135000000     1.324000000    -0.991000000
C     1.445000000    -0.356000000     0.857000000
H     2.122000000     0.048000000     0.108000000
C     1.882000000    -0.856000000     2.086000000
H     2.945000000    -0.909000000     2.309000000
C     0.879000000    -1.253000000     2.981000000
C     1.264000000    -1.722000000     4.296000000
O     2.398000000    -1.484000000     4.718000000
O     0.367000000    -2.152000000     5.008000000
