17
-98.87850
C    -0.206000000     2.294000000     1.592000000
H    -0.111000000     3.369000000     1.722000000
C     0.116000000     1.620000000     0.381000000
H     0.638000000     2.134000000    -0.422000000
C    -0.157000000     0.304000000     0.207000000
C     0.083000000    -0.442000000    -1.068000000
H    -0.672000000    -0.075000000    -1.767000000
H     1.071000000    -0.219000000    -1.476000000
H    -0.031000000    -1.528000000    -1.051000000
C    -0.691000000    -0.453000000     1.252000000
H    -0.777000000    -1.532000000     1.153000000
C    -0.993000000     0.203000000     2.432000000
H    -1.255000000    -0.452000000     3.259000000
C    -0.780000000     1.568000000     2.666000000
C    -1.117000000     2.234000000     3.977000000
O    -1.587000000     1.556000000     4.892000000
O    -0.751000000     3.375000000     4.156000000
