17
-94.03661
C     0.228000000     2.466000000     1.687000000
H     0.733000000     3.426000000     1.611000000
C     0.232000000     1.604000000     0.599000000
H     0.749000000     1.999000000    -0.271000000
C    -0.326000000     0.319000000     0.685000000
C    -0.405000000    -0.548000000    -0.603000000
H    -0.660000000    -1.587000000    -0.386000000
H    -1.184000000    -0.093000000    -1.218000000
H     0.496000000    -0.505000000    -1.218000000
C    -0.931000000    -0.052000000     1.837000000
H    -1.315000000    -1.058000000     1.987000000
C    -0.907000000     0.754000000     2.943000000
H    -1.469000000     0.431000000     3.816000000
C    -0.304000000     2.043000000     2.878000000
C    -0.140000000     2.834000000     4.116000000
O    -0.605000000     2.414000000     5.183000000
O     0.702000000     3.731000000     4.187000000
