17
-98.32199
C    -0.551000000     2.457000000     1.117000000
H    -0.776000000     3.487000000     0.852000000
C    -0.271000000     1.607000000     0.068000000
H    -0.238000000     1.934000000    -0.968000000
C    -0.028000000     0.287000000     0.354000000
C    -0.013000000    -0.658000000    -0.815000000
H     0.296000000    -1.659000000    -0.507000000
H    -0.982000000    -0.724000000    -1.315000000
H     0.670000000    -0.318000000    -1.596000000
C     0.090000000    -0.094000000     1.674000000
H     0.378000000    -1.104000000     1.955000000
C    -0.236000000     0.767000000     2.735000000
H    -0.092000000     0.378000000     3.739000000
C    -0.565000000     2.084000000     2.515000000
C    -0.793000000     3.015000000     3.676000000
O    -0.725000000     2.615000000     4.825000000
O    -0.877000000     4.213000000     3.402000000
