17
-98.94787
C     0.495000000     2.381000000     1.084000000
H     0.844000000     3.391000000     0.887000000
C     0.423000000     1.451000000     0.015000000
H     0.598000000     1.808000000    -0.997000000
C    -0.080000000     0.167000000     0.202000000
C    -0.300000000    -0.743000000    -1.032000000
H    -0.126000000    -0.126000000    -1.916000000
H     0.418000000    -1.564000000    -0.995000000
H    -1.300000000    -1.181000000    -1.013000000
C    -0.345000000    -0.247000000     1.463000000
H    -0.851000000    -1.195000000     1.625000000
C    -0.051000000     0.544000000     2.556000000
H    -0.290000000     0.164000000     3.546000000
C     0.322000000     1.916000000     2.400000000
C     0.343000000     2.826000000     3.635000000
O     0.247000000     2.384000000     4.783000000
O     0.517000000     4.062000000     3.466000000
