17
-93.44682
C     0.035000000     2.352000000     1.384000000
H     0.337000000     3.393000000     1.470000000
C     0.512000000     1.608000000     0.313000000
H     1.062000000     2.152000000    -0.450000000
C     0.146000000     0.309000000     0.179000000
C     0.562000000    -0.439000000    -1.108000000
H     0.113000000    -1.433000000    -1.151000000
H     0.191000000     0.055000000    -2.009000000
H     1.652000000    -0.497000000    -1.116000000
C    -0.714000000    -0.310000000     1.087000000
H    -1.153000000    -1.290000000     0.915000000
C    -1.135000000     0.400000000     2.211000000
H    -1.824000000    -0.097000000     2.889000000
C    -0.673000000     1.716000000     2.386000000
C    -1.063000000     2.453000000     3.662000000
O    -1.561000000     1.931000000     4.638000000
O    -0.677000000     3.570000000     3.708000000
