17
-95.10652
C     0.863000000     2.956000000     0.486000000
H     1.206000000     3.866000000     0.001000000
C     0.616000000     1.808000000    -0.278000000
H     0.978000000     1.823000000    -1.303000000
C     0.168000000     0.580000000     0.290000000
C    -0.152000000    -0.568000000    -0.634000000
H     0.808000000    -1.035000000    -0.864000000
H    -0.739000000    -1.332000000    -0.121000000
H    -0.575000000    -0.095000000    -1.523000000
C    -0.273000000     0.625000000     1.574000000
H    -0.784000000    -0.221000000     2.027000000
C    -0.005000000     1.760000000     2.374000000
H    -0.171000000     1.677000000     3.445000000
C     0.577000000     2.922000000     1.876000000
C     0.795000000     4.064000000     2.748000000
O     0.693000000     3.866000000     3.952000000
O     0.917000000     5.222000000     2.323000000
