17
-96.13524
C    -0.551000000     2.342000000     1.234000000
H    -0.527000000     3.426000000     1.147000000
C    -0.152000000     1.491000000     0.198000000
H     0.087000000     1.895000000    -0.782000000
C    -0.308000000     0.130000000     0.350000000
C    -0.041000000    -0.776000000    -0.765000000
H    -0.661000000    -1.673000000    -0.709000000
H    -0.316000000    -0.195000000    -1.648000000
H     1.034000000    -0.958000000    -0.823000000
C    -0.674000000    -0.389000000     1.563000000
H    -0.738000000    -1.454000000     1.771000000
C    -0.982000000     0.442000000     2.627000000
H    -1.402000000     0.064000000     3.556000000
C    -0.858000000     1.812000000     2.497000000
C    -1.353000000     2.813000000     3.562000000
O    -1.810000000     2.445000000     4.626000000
O    -1.415000000     3.996000000     3.270000000
