17
-95.04093
C     1.243000000     2.203000000     1.393000000
H     1.909000000     2.985000000     1.037000000
C     0.616000000     1.349000000     0.402000000
H     0.683000000     1.583000000    -0.657000000
C    -0.129000000     0.231000000     0.689000000
C    -0.760000000    -0.596000000    -0.433000000
H    -1.237000000     0.087000000    -1.139000000
H     0.022000000    -1.218000000    -0.874000000
H    -1.407000000    -1.328000000     0.055000000
C    -0.110000000    -0.228000000     2.006000000
H    -0.473000000    -1.219000000     2.264000000
C     0.488000000     0.549000000     2.976000000
H     0.619000000     0.196000000     3.995000000
C     1.146000000     1.748000000     2.707000000
C     1.970000000     2.480000000     3.780000000
O     1.769000000     2.208000000     4.935000000
O     2.797000000     3.298000000     3.443000000
