17
-85.45369
C     0.866000000     2.675000000     0.572000000
H     1.275000000     3.632000000     0.258000000
C     0.625000000     1.645000000    -0.427000000
H     0.880000000     1.793000000    -1.473000000
C     0.023000000     0.450000000     0.018000000
C    -0.334000000    -0.694000000    -0.901000000
H     0.304000000    -1.566000000    -0.740000000
H    -1.360000000    -0.906000000    -0.593000000
H    -0.378000000    -0.398000000    -1.951000000
C    -0.277000000     0.253000000     1.305000000
H    -0.603000000    -0.707000000     1.697000000
C    -0.042000000     1.233000000     2.302000000
H    -0.192000000     0.886000000     3.321000000
C     0.578000000     2.436000000     1.923000000
C     0.943000000     3.456000000     3.009000000
O     0.756000000     3.271000000     4.177000000
O     1.584000000     4.437000000     2.748000000
