17
-94.69910
C     1.823000000     1.789000000     0.592000000
H     2.423000000     2.594000000     0.176000000
C     1.047000000     1.029000000    -0.308000000
H     1.107000000     1.250000000    -1.371000000
C     0.137000000     0.102000000     0.140000000
C    -0.600000000    -0.792000000    -0.847000000
H     0.138000000    -1.514000000    -1.202000000
H    -1.470000000    -1.287000000    -0.410000000
H    -0.992000000    -0.397000000    -1.786000000
C    -0.047000000    -0.021000000     1.488000000
H    -0.735000000    -0.792000000     1.824000000
C     0.681000000     0.737000000     2.470000000
H     0.542000000     0.443000000     3.507000000
C     1.610000000     1.638000000     2.009000000
C     2.467000000     2.360000000     3.010000000
O     2.207000000     2.294000000     4.177000000
O     3.356000000     3.063000000     2.568000000
