17
-95.60756
C    -2.123000000    -0.118000000     1.727000000
H    -2.668000000     0.380000000     2.525000000
C    -1.140000000     0.523000000     0.931000000
H    -1.098000000     1.600000000     1.072000000
C    -0.461000000    -0.121000000    -0.082000000
C     0.602000000     0.502000000    -1.006000000
H     1.606000000     0.365000000    -0.598000000
H     0.686000000     0.042000000    -1.993000000
H     0.407000000     1.575000000    -1.061000000
C    -0.662000000    -1.486000000    -0.216000000
H    -0.065000000    -2.097000000    -0.888000000
C    -1.578000000    -2.141000000     0.593000000
H    -1.700000000    -3.210000000     0.443000000
C    -2.394000000    -1.494000000     1.548000000
C    -3.413000000    -2.317000000     2.352000000
O    -3.589000000    -3.515000000     2.106000000
O    -4.129000000    -1.747000000     3.100000000
