17
-93.92094
C     1.630000000     1.918000000     0.944000000
H     2.156000000     2.823000000     0.652000000
C     0.765000000     1.340000000    -0.017000000
H     0.571000000     1.769000000    -0.996000000
C     0.132000000     0.125000000     0.238000000
C    -0.825000000    -0.466000000    -0.745000000
H    -0.380000000    -1.340000000    -1.224000000
H    -1.692000000    -0.770000000    -0.154000000
H    -1.116000000     0.254000000    -1.512000000
C     0.361000000    -0.499000000     1.483000000
H     0.027000000    -1.520000000     1.650000000
C     1.007000000     0.256000000     2.523000000
H     1.030000000    -0.178000000     3.519000000
C     1.808000000     1.371000000     2.215000000
C     2.626000000     2.106000000     3.275000000
O     2.627000000     1.718000000     4.455000000
O     3.292000000     3.134000000     3.093000000
