17
-91.55710
C     2.067000000     1.404000000     0.823000000
H     2.973000000     1.956000000     0.588000000
C     1.291000000     0.875000000    -0.231000000
H     1.423000000     1.114000000    -1.283000000
C     0.117000000     0.276000000     0.148000000
C    -0.740000000    -0.168000000    -1.016000000
H    -0.480000000    -1.151000000    -1.414000000
H    -1.727000000    -0.033000000    -0.569000000
H    -0.658000000     0.539000000    -1.845000000
C    -0.225000000     0.118000000     1.476000000
H    -1.158000000    -0.389000000     1.711000000
C     0.605000000     0.560000000     2.452000000
H     0.369000000     0.351000000     3.492000000
C     1.776000000     1.210000000     2.168000000
C     2.699000000     1.631000000     3.275000000
O     2.265000000     1.588000000     4.431000000
O     3.708000000     2.266000000     3.047000000
