17
-94.55955
C     2.817000000     0.700000000     1.331000000
H     3.761000000     0.188000000     1.500000000
C     1.885000000    -0.119000000     0.800000000
H     2.146000000    -1.162000000     0.638000000
C     0.658000000     0.410000000     0.353000000
C    -0.249000000    -0.451000000    -0.512000000
H    -0.918000000    -1.053000000     0.106000000
H    -0.744000000     0.228000000    -1.209000000
H     0.304000000    -1.210000000    -1.071000000
C     0.326000000     1.768000000     0.535000000
H    -0.652000000     2.154000000     0.260000000
C     1.328000000     2.526000000     1.111000000
H     1.009000000     3.535000000     1.361000000
C     2.619000000     2.034000000     1.455000000
C     3.716000000     2.890000000     1.978000000
O     3.487000000     4.038000000     2.312000000
O     4.856000000     2.417000000     2.053000000
