17
-99.45674
C     1.663000000     0.827000000     1.648000000
H     2.517000000     0.581000000     2.274000000
C     1.073000000    -0.156000000     0.832000000
H     1.481000000    -1.157000000     0.720000000
C     0.070000000     0.189000000    -0.131000000
C    -0.329000000    -0.857000000    -1.192000000
H     0.602000000    -1.096000000    -1.711000000
H    -0.794000000    -1.714000000    -0.701000000
H    -1.133000000    -0.559000000    -1.868000000
C    -0.434000000     1.485000000    -0.162000000
H    -1.243000000     1.760000000    -0.833000000
C     0.172000000     2.477000000     0.617000000
H    -0.186000000     3.498000000     0.513000000
C     1.201000000     2.172000000     1.488000000
C     1.943000000     3.240000000     2.252000000
O     1.715000000     4.392000000     1.984000000
O     2.672000000     2.908000000     3.201000000
