17
-89.53047
C     2.218000000     1.175000000     0.967000000
H     3.206000000     1.049000000     1.403000000
C     1.540000000     0.170000000     0.310000000
H     2.001000000    -0.796000000     0.122000000
C     0.194000000     0.382000000    -0.062000000
C    -0.485000000    -0.785000000    -0.739000000
H    -1.011000000    -1.331000000     0.047000000
H    -1.368000000    -0.589000000    -1.350000000
H     0.157000000    -1.599000000    -1.085000000
C    -0.455000000     1.585000000     0.126000000
H    -1.459000000     1.823000000    -0.216000000
C     0.218000000     2.584000000     0.770000000
H    -0.353000000     3.489000000     0.959000000
C     1.580000000     2.474000000     1.206000000
C     2.276000000     3.632000000     1.975000000
O     1.659000000     4.651000000     2.148000000
O     3.454000000     3.610000000     2.313000000
