17
-90.76630
C     1.246000000     0.830000000     1.764000000
H     2.040000000     0.763000000     2.504000000
C     0.906000000    -0.272000000     1.017000000
H     1.396000000    -1.232000000     1.157000000
C    -0.077000000    -0.155000000     0.072000000
C    -0.393000000    -1.351000000    -0.881000000
H     0.169000000    -2.238000000    -0.581000000
H    -1.455000000    -1.552000000    -0.724000000
H    -0.208000000    -0.999000000    -1.898000000
C    -0.770000000     1.029000000    -0.196000000
H    -1.479000000     1.147000000    -1.012000000
C    -0.408000000     2.146000000     0.506000000
H    -0.890000000     3.091000000     0.267000000
C     0.621000000     2.081000000     1.424000000
C     1.064000000     3.307000000     2.270000000
O     0.621000000     4.410000000     2.048000000
O     1.977000000     3.227000000     3.033000000
