17
-101.48698
C    -2.628000000    -0.589000000     1.280000000
H    -3.421000000    -0.118000000     1.854000000
C    -1.588000000     0.159000000     0.695000000
H    -1.694000000     1.238000000     0.772000000
C    -0.505000000    -0.462000000     0.042000000
C     0.574000000     0.315000000    -0.661000000
H     1.477000000     0.249000000    -0.050000000
H     0.881000000    -0.114000000    -1.617000000
H     0.314000000     1.373000000    -0.739000000
C    -0.497000000    -1.852000000    -0.030000000
H     0.305000000    -2.324000000    -0.592000000
C    -1.536000000    -2.605000000     0.494000000
H    -1.422000000    -3.686000000     0.464000000
C    -2.593000000    -1.985000000     1.165000000
C    -3.667000000    -2.836000000     1.783000000
O    -3.674000000    -4.073000000     1.564000000
O    -4.424000000    -2.419000000     2.677000000
