17
-98.95592
C     1.770000000     0.416000000     2.070000000
H     2.522000000    -0.066000000     2.689000000
C     1.055000000    -0.199000000     1.066000000
H     1.148000000    -1.266000000     0.876000000
C     0.167000000     0.495000000     0.230000000
C    -0.661000000    -0.312000000    -0.751000000
H    -0.208000000    -1.157000000    -1.274000000
H    -1.592000000    -0.658000000    -0.299000000
H    -0.850000000     0.356000000    -1.594000000
C     0.042000000     1.860000000     0.392000000
H    -0.659000000     2.452000000    -0.191000000
C     0.722000000     2.506000000     1.401000000
H     0.793000000     3.591000000     1.386000000
C     1.641000000     1.833000000     2.197000000
C     2.488000000     2.576000000     3.200000000
O     2.270000000     3.747000000     3.504000000
O     3.437000000     1.983000000     3.749000000
