17
-83.76307
C     1.932000000     0.737000000     1.224000000
H     2.823000000     0.424000000     1.762000000
C     1.100000000    -0.269000000     0.671000000
H     1.300000000    -1.321000000     0.852000000
C    -0.029000000    -0.009000000    -0.051000000
C    -0.825000000    -1.123000000    -0.746000000
H    -1.275000000    -1.665000000     0.088000000
H    -1.723000000    -0.791000000    -1.271000000
H    -0.291000000    -1.907000000    -1.288000000
C    -0.429000000     1.317000000    -0.141000000
H    -1.382000000     1.580000000    -0.593000000
C     0.370000000     2.375000000     0.243000000
H    -0.018000000     3.389000000     0.196000000
C     1.546000000     2.093000000     1.002000000
C     2.407000000     3.188000000     1.608000000
O     2.096000000     4.334000000     1.538000000
O     3.317000000     2.932000000     2.337000000
