17
-96.80350
C     0.750000000    -2.891000000     0.983000000
H     0.606000000    -3.967000000     1.038000000
C    -0.183000000    -2.106000000     0.331000000
H    -1.101000000    -2.600000000     0.026000000
C     0.011000000    -0.754000000     0.276000000
C    -0.938000000     0.272000000    -0.161000000
H    -1.722000000    -0.344000000    -0.607000000
H    -1.352000000     0.848000000     0.668000000
H    -0.650000000     0.891000000    -1.014000000
C     1.202000000    -0.160000000     0.811000000
H     1.387000000     0.909000000     0.743000000
C     2.180000000    -1.005000000     1.430000000
H     3.104000000    -0.547000000     1.772000000
C     1.950000000    -2.382000000     1.493000000
C     2.956000000    -3.409000000     1.957000000
O     4.130000000    -3.051000000     2.089000000
O     2.557000000    -4.550000000     2.100000000
