17
-93.33710
C    -2.119000000    -0.067000000     1.577000000
H    -2.420000000     0.324000000     2.545000000
C    -1.039000000     0.418000000     0.904000000
H    -0.561000000     1.318000000     1.281000000
C    -0.587000000    -0.095000000    -0.302000000
C     0.632000000     0.558000000    -0.962000000
H     1.128000000    -0.132000000    -1.647000000
H     0.240000000     1.359000000    -1.593000000
H     1.325000000     0.983000000    -0.232000000
C    -1.178000000    -1.252000000    -0.815000000
H    -0.759000000    -1.740000000    -1.691000000
C    -2.272000000    -1.748000000    -0.175000000
H    -2.776000000    -2.623000000    -0.577000000
C    -2.814000000    -1.107000000     0.968000000
C    -3.979000000    -1.690000000     1.670000000
O    -4.543000000    -2.600000000     1.178000000
O    -4.226000000    -1.365000000     2.833000000
