17
-91.47915
C    -2.767000000    -0.170000000     1.531000000
H    -3.194000000     0.139000000     2.482000000
C    -1.759000000     0.513000000     0.918000000
H    -1.470000000     1.493000000     1.287000000
C    -1.048000000    -0.065000000    -0.156000000
C     0.225000000     0.595000000    -0.643000000
H    -0.009000000     1.622000000    -0.933000000
H     0.899000000     0.553000000     0.215000000
H     0.672000000     0.037000000    -1.468000000
C    -1.578000000    -1.224000000    -0.720000000
H    -0.992000000    -1.715000000    -1.493000000
C    -2.652000000    -1.857000000    -0.148000000
H    -3.024000000    -2.808000000    -0.518000000
C    -3.203000000    -1.358000000     1.005000000
C    -4.247000000    -2.197000000     1.753000000
O    -4.482000000    -3.311000000     1.365000000
O    -4.617000000    -1.897000000     2.847000000
