17
-92.77752
C    -1.746000000    -0.347000000     1.864000000
H    -2.025000000     0.126000000     2.802000000
C    -0.739000000     0.218000000     1.128000000
H    -0.175000000     1.044000000     1.553000000
C    -0.408000000    -0.249000000    -0.099000000
C     0.687000000     0.435000000    -0.860000000
H     0.428000000     1.453000000    -1.157000000
H     1.643000000     0.409000000    -0.332000000
H     0.764000000    -0.083000000    -1.818000000
C    -1.073000000    -1.360000000    -0.617000000
H    -0.814000000    -1.852000000    -1.551000000
C    -2.128000000    -1.963000000     0.116000000
H    -2.685000000    -2.726000000    -0.422000000
C    -2.431000000    -1.477000000     1.417000000
C    -3.761000000    -1.959000000     2.056000000
O    -4.423000000    -2.758000000     1.364000000
O    -4.091000000    -1.834000000     3.212000000
