17
-92.29196
C    -1.922000000    -0.697000000     2.111000000
H    -2.378000000    -0.557000000     3.088000000
C    -0.855000000     0.099000000     1.634000000
H    -0.284000000     0.797000000     2.242000000
C    -0.569000000     0.083000000     0.222000000
C     0.337000000     0.994000000    -0.457000000
H    -0.005000000     1.232000000    -1.466000000
H     0.449000000     1.921000000     0.109000000
H     1.327000000     0.535000000    -0.436000000
C    -1.266000000    -0.806000000    -0.577000000
H    -1.090000000    -0.803000000    -1.649000000
C    -2.260000000    -1.697000000    -0.155000000
H    -2.769000000    -2.410000000    -0.799000000
C    -2.549000000    -1.648000000     1.248000000
C    -3.623000000    -2.507000000     1.728000000
O    -4.162000000    -3.277000000     0.954000000
O    -4.041000000    -2.421000000     2.865000000
