17
-96.02716
C    -1.956000000    -0.580000000     1.503000000
H    -2.555000000    -0.266000000     2.355000000
C    -0.941000000     0.253000000     1.019000000
H    -0.775000000     1.192000000     1.541000000
C    -0.148000000    -0.211000000    -0.080000000
C     0.873000000     0.721000000    -0.752000000
H     0.562000000     1.747000000    -0.548000000
H     1.839000000     0.509000000    -0.289000000
H     0.904000000     0.569000000    -1.833000000
C    -0.352000000    -1.543000000    -0.539000000
H     0.144000000    -1.980000000    -1.401000000
C    -1.283000000    -2.428000000     0.082000000
H    -1.420000000    -3.413000000    -0.356000000
C    -2.068000000    -1.886000000     1.053000000
C    -3.192000000    -2.786000000     1.656000000
O    -3.124000000    -3.987000000     1.527000000
O    -4.075000000    -2.333000000     2.401000000
