17
-79.96857
C    -2.533000000    -0.672000000     1.417000000
H    -2.985000000    -0.270000000     2.320000000
C    -1.388000000     0.113000000     0.888000000
H    -1.138000000     1.040000000     1.396000000
C    -0.659000000    -0.253000000    -0.233000000
C     0.581000000     0.511000000    -0.656000000
H     1.315000000     0.095000000     0.038000000
H     0.930000000     0.224000000    -1.650000000
H     0.602000000     1.595000000    -0.524000000
C    -0.965000000    -1.494000000    -0.755000000
H    -0.412000000    -1.896000000    -1.600000000
C    -1.966000000    -2.346000000    -0.202000000
H    -2.097000000    -3.359000000    -0.576000000
C    -2.699000000    -1.968000000     0.891000000
C    -3.630000000    -2.957000000     1.579000000
O    -4.078000000    -3.960000000     1.036000000
O    -4.071000000    -2.684000000     2.612000000
