17
-91.80277
C    -2.316000000    -1.066000000     1.711000000
H    -2.833000000    -0.851000000     2.643000000
C    -1.316000000    -0.196000000     1.295000000
H    -0.972000000     0.683000000     1.834000000
C    -0.524000000    -0.543000000     0.193000000
C     0.504000000     0.453000000    -0.263000000
H     1.467000000     0.144000000     0.149000000
H     0.442000000     0.470000000    -1.353000000
H     0.336000000     1.481000000     0.065000000
C    -0.890000000    -1.629000000    -0.637000000
H    -0.413000000    -1.787000000    -1.600000000
C    -2.015000000    -2.419000000    -0.250000000
H    -2.202000000    -3.324000000    -0.822000000
C    -2.705000000    -2.174000000     0.920000000
C    -3.740000000    -3.064000000     1.419000000
O    -3.791000000    -4.241000000     1.131000000
O    -4.409000000    -2.687000000     2.371000000
