17
-101.99981
C    -1.607000000    -0.278000000     2.385000000
H    -1.817000000     0.134000000     3.369000000
C    -0.667000000     0.384000000     1.603000000
H    -0.125000000     1.270000000     1.922000000
C    -0.440000000    -0.020000000     0.297000000
C     0.488000000     0.806000000    -0.517000000
H     1.422000000     1.004000000     0.012000000
H     0.801000000     0.305000000    -1.435000000
H    -0.002000000     1.720000000    -0.858000000
C    -0.999000000    -1.242000000    -0.167000000
H    -0.744000000    -1.647000000    -1.143000000
C    -1.773000000    -2.016000000     0.721000000
H    -2.168000000    -2.971000000     0.385000000
C    -2.072000000    -1.517000000     2.020000000
C    -2.889000000    -2.344000000     2.990000000
O    -3.549000000    -3.272000000     2.517000000
O    -2.991000000    -1.936000000     4.133000000
