17
-95.70921
C    -1.605000000    -0.755000000     2.725000000
H    -1.688000000    -0.556000000     3.790000000
C    -0.871000000     0.122000000     1.927000000
H    -0.460000000     1.071000000     2.262000000
C    -0.822000000    -0.127000000     0.541000000
C     0.112000000     0.661000000    -0.347000000
H    -0.355000000     0.808000000    -1.323000000
H     0.305000000     1.663000000     0.042000000
H     1.094000000     0.201000000    -0.477000000
C    -1.476000000    -1.220000000     0.003000000
H    -1.520000000    -1.503000000    -1.046000000
C    -2.294000000    -1.973000000     0.818000000
H    -2.849000000    -2.811000000     0.403000000
C    -2.388000000    -1.765000000     2.171000000
C    -3.164000000    -2.651000000     3.078000000
O    -3.793000000    -3.571000000     2.625000000
O    -2.953000000    -2.534000000     4.257000000
