17
-94.03436
C    -1.703000000    -0.293000000     1.980000000
H    -1.995000000    -0.005000000     2.987000000
C    -0.754000000     0.473000000     1.241000000
H    -0.350000000     1.416000000     1.600000000
C    -0.216000000     0.096000000     0.023000000
C     0.713000000     1.017000000    -0.702000000
H     1.694000000     0.996000000    -0.224000000
H     0.748000000     0.761000000    -1.763000000
H     0.246000000     1.995000000    -0.569000000
C    -0.520000000    -1.152000000    -0.472000000
H    -0.021000000    -1.507000000    -1.370000000
C    -1.471000000    -1.935000000     0.207000000
H    -1.628000000    -2.948000000    -0.155000000
C    -2.134000000    -1.500000000     1.405000000
C    -2.913000000    -2.477000000     2.248000000
O    -3.147000000    -3.601000000     1.864000000
O    -3.325000000    -2.132000000     3.336000000
