17
-87.94371
C    -1.704000000    -0.395000000     2.261000000
H    -1.721000000    -0.025000000     3.282000000
C    -0.752000000     0.101000000     1.372000000
H     0.113000000     0.712000000     1.619000000
C    -0.851000000    -0.221000000     0.047000000
C     0.253000000     0.344000000    -0.884000000
H     0.363000000    -0.164000000    -1.844000000
H     0.120000000     1.412000000    -1.070000000
H     1.198000000     0.319000000    -0.338000000
C    -1.815000000    -1.176000000    -0.430000000
H    -1.791000000    -1.479000000    -1.473000000
C    -2.764000000    -1.649000000     0.471000000
H    -3.570000000    -2.302000000     0.148000000
C    -2.709000000    -1.281000000     1.841000000
C    -3.877000000    -1.646000000     2.772000000
O    -4.613000000    -2.541000000     2.475000000
O    -3.685000000    -1.431000000     3.966000000
