17
-92.56187
C    -1.882000000    -0.579000000     1.734000000
H    -2.238000000    -0.218000000     2.696000000
C    -0.778000000     0.038000000     1.201000000
H    -0.206000000     0.695000000     1.851000000
C    -0.360000000    -0.291000000    -0.063000000
C     0.652000000     0.660000000    -0.682000000
H     0.471000000     0.804000000    -1.749000000
H     0.723000000     1.616000000    -0.159000000
H     1.603000000     0.129000000    -0.598000000
C    -1.146000000    -1.185000000    -0.818000000
H    -0.885000000    -1.304000000    -1.867000000
C    -2.182000000    -1.892000000    -0.217000000
H    -2.726000000    -2.621000000    -0.812000000
C    -2.567000000    -1.637000000     1.071000000
C    -3.783000000    -2.257000000     1.667000000
O    -4.373000000    -3.153000000     1.062000000
O    -4.257000000    -1.829000000     2.670000000
