17
-92.03684
C    -0.762000000    -0.562000000     2.002000000
H    -0.638000000    -0.474000000     3.079000000
C     0.185000000     0.146000000     1.249000000
H     0.899000000     0.838000000     1.688000000
C     0.137000000     0.047000000    -0.141000000
C     0.899000000     1.082000000    -0.901000000
H     0.771000000     2.095000000    -0.516000000
H     1.968000000     0.877000000    -0.808000000
H     0.645000000     1.033000000    -1.962000000
C    -0.769000000    -0.898000000    -0.765000000
H    -0.809000000    -1.041000000    -1.842000000
C    -1.749000000    -1.553000000     0.047000000
H    -2.632000000    -2.052000000    -0.345000000
C    -1.767000000    -1.410000000     1.412000000
C    -2.845000000    -2.139000000     2.250000000
O    -3.493000000    -3.113000000     1.885000000
O    -2.857000000    -1.830000000     3.427000000
