17
-90.21234
C    -0.686000000    -0.802000000     2.225000000
H    -0.677000000    -1.007000000     3.292000000
C     0.219000000     0.022000000     1.532000000
H     0.950000000     0.636000000     2.052000000
C     0.174000000     0.063000000     0.135000000
C     1.004000000     1.064000000    -0.546000000
H     1.903000000     1.335000000     0.012000000
H     1.345000000     0.661000000    -1.502000000
H     0.506000000     2.006000000    -0.783000000
C    -0.842000000    -0.532000000    -0.571000000
H    -1.028000000    -0.357000000    -1.628000000
C    -1.796000000    -1.335000000     0.095000000
H    -2.614000000    -1.837000000    -0.415000000
C    -1.673000000    -1.464000000     1.487000000
C    -2.671000000    -2.270000000     2.214000000
O    -3.274000000    -3.179000000     1.627000000
O    -2.650000000    -2.343000000     3.407000000
