17
-91.61898
C    -1.312000000    -1.978000000     1.704000000
H    -1.544000000    -2.267000000     2.726000000
C    -0.547000000    -0.828000000     1.448000000
H    -0.069000000    -0.300000000     2.268000000
C    -0.347000000    -0.399000000     0.107000000
C     0.532000000     0.739000000    -0.175000000
H     1.298000000     0.874000000     0.591000000
H     0.848000000     0.480000000    -1.188000000
H    -0.069000000     1.646000000    -0.273000000
C    -1.122000000    -1.034000000    -0.876000000
H    -0.997000000    -0.738000000    -1.914000000
C    -1.970000000    -2.092000000    -0.594000000
H    -2.572000000    -2.418000000    -1.438000000
C    -2.113000000    -2.632000000     0.713000000
C    -2.890000000    -3.841000000     1.126000000
O    -3.533000000    -4.458000000     0.358000000
O    -2.858000000    -4.134000000     2.332000000
