17
-97.13357
C    -1.488000000    -1.188000000     1.525000000
H    -1.671000000    -1.387000000     2.577000000
C    -0.464000000    -0.344000000     1.175000000
H     0.120000000     0.082000000     1.987000000
C    -0.110000000    -0.050000000    -0.145000000
C     0.988000000     1.029000000    -0.426000000
H     0.644000000     1.781000000    -1.139000000
H     1.234000000     1.690000000     0.407000000
H     1.884000000     0.527000000    -0.798000000
C    -0.786000000    -0.671000000    -1.175000000
H    -0.362000000    -0.581000000    -2.172000000
C    -1.825000000    -1.519000000    -0.852000000
H    -2.402000000    -1.960000000    -1.661000000
C    -2.165000000    -1.831000000     0.453000000
C    -3.193000000    -2.859000000     0.835000000
O    -3.521000000    -3.695000000     0.018000000
O    -3.636000000    -2.939000000     2.037000000
