17
-91.57049
C    -1.835000000    -1.202000000     1.689000000
H    -2.299000000    -1.363000000     2.659000000
C    -0.791000000    -0.239000000     1.374000000
H    -0.414000000     0.344000000     2.210000000
C    -0.414000000     0.023000000     0.048000000
C     0.844000000     0.944000000    -0.271000000
H     0.774000000     1.921000000     0.211000000
H     1.829000000     0.574000000     0.020000000
H     0.942000000     1.024000000    -1.356000000
C    -1.045000000    -0.645000000    -1.000000000
H    -0.748000000    -0.453000000    -2.028000000
C    -2.071000000    -1.491000000    -0.703000000
H    -2.673000000    -1.875000000    -1.522000000
C    -2.459000000    -1.860000000     0.584000000
C    -3.633000000    -2.761000000     0.884000000
O    -4.439000000    -2.868000000    -0.017000000
O    -3.836000000    -3.164000000     1.996000000
