17
-85.15528
C    -2.044000000    -1.532000000     1.362000000
H    -2.421000000    -1.872000000     2.323000000
C    -0.852000000    -0.849000000     1.281000000
H    -0.176000000    -0.709000000     2.121000000
C    -0.497000000    -0.224000000     0.060000000
C     0.687000000     0.673000000     0.074000000
H     1.078000000     0.733000000     1.091000000
H     1.401000000     0.060000000    -0.479000000
H     0.547000000     1.675000000    -0.337000000
C    -1.291000000    -0.318000000    -1.025000000
H    -0.942000000     0.128000000    -1.953000000
C    -2.475000000    -1.096000000    -0.960000000
H    -3.139000000    -1.136000000    -1.819000000
C    -2.872000000    -1.740000000     0.239000000
C    -4.142000000    -2.459000000     0.331000000
O    -5.115000000    -2.259000000    -0.355000000
O    -4.278000000    -3.313000000     1.148000000
