17
-85.39353
C    -1.826000000    -1.376000000     1.199000000
H    -2.346000000    -1.695000000     2.099000000
C    -0.776000000    -0.509000000     1.251000000
H    -0.431000000    -0.194000000     2.233000000
C    -0.141000000    -0.160000000     0.023000000
C     1.181000000     0.578000000     0.189000000
H     1.938000000    -0.207000000     0.121000000
H     1.280000000     1.378000000    -0.547000000
H     1.188000000     0.949000000     1.216000000
C    -0.641000000    -0.586000000    -1.227000000
H    -0.226000000    -0.182000000    -2.147000000
C    -1.735000000    -1.368000000    -1.209000000
H    -2.200000000    -1.636000000    -2.154000000
C    -2.303000000    -1.761000000    -0.001000000
C    -3.571000000    -2.719000000    -0.008000000
O    -4.209000000    -2.945000000    -0.961000000
O    -4.014000000    -3.114000000     1.062000000
