17
-94.15786
C     1.367000000    -2.715000000    -0.835000000
H     1.148000000    -3.708000000    -1.219000000
C     0.373000000    -1.744000000    -0.758000000
H    -0.613000000    -1.846000000    -1.206000000
C     0.640000000    -0.519000000    -0.070000000
C    -0.534000000     0.384000000     0.391000000
H    -0.873000000     0.127000000     1.397000000
H    -0.242000000     1.435000000     0.335000000
H    -1.357000000     0.262000000    -0.316000000
C     1.844000000    -0.294000000     0.463000000
H     1.935000000     0.649000000     0.995000000
C     2.855000000    -1.166000000     0.187000000
H     3.861000000    -0.811000000     0.399000000
C     2.628000000    -2.402000000    -0.344000000
C     3.712000000    -3.455000000    -0.359000000
O     4.852000000    -3.150000000     0.067000000
O     3.510000000    -4.629000000    -0.741000000
