17
-96.80385
C    -1.811000000    -1.131000000     1.263000000
H    -2.323000000    -1.382000000     2.188000000
C    -0.592000000    -0.489000000     1.291000000
H    -0.239000000    -0.226000000     2.284000000
C     0.038000000    -0.038000000     0.151000000
C     1.348000000     0.702000000     0.083000000
H     1.294000000     1.592000000    -0.546000000
H     1.704000000     1.159000000     1.009000000
H     2.138000000     0.095000000    -0.366000000
C    -0.500000000    -0.394000000    -1.079000000
H     0.061000000    -0.175000000    -1.985000000
C    -1.741000000    -1.080000000    -1.141000000
H    -2.135000000    -1.401000000    -2.102000000
C    -2.427000000    -1.395000000     0.059000000
C    -3.819000000    -2.003000000    -0.056000000
O    -4.232000000    -2.359000000    -1.127000000
O    -4.464000000    -2.237000000     0.942000000
