17
-92.49028
C    -2.151000000    -1.100000000     0.794000000
H    -2.764000000    -1.310000000     1.667000000
C    -0.976000000    -0.375000000     0.900000000
H    -0.556000000    -0.125000000     1.870000000
C    -0.248000000    -0.046000000    -0.251000000
C     1.103000000     0.588000000    -0.109000000
H     1.098000000     1.547000000    -0.631000000
H     1.321000000     0.767000000     0.946000000
H     1.951000000     0.084000000    -0.579000000
C    -0.771000000    -0.398000000    -1.537000000
H    -0.287000000    -0.104000000    -2.466000000
C    -1.979000000    -1.036000000    -1.603000000
H    -2.394000000    -1.172000000    -2.599000000
C    -2.674000000    -1.473000000    -0.468000000
C    -3.998000000    -2.106000000    -0.672000000
O    -4.302000000    -2.502000000    -1.771000000
O    -4.614000000    -2.568000000     0.274000000
