17
-99.32219
C    -1.280000000    -2.172000000     1.192000000
H    -1.505000000    -2.765000000     2.075000000
C    -0.399000000    -1.099000000     1.251000000
H     0.094000000    -0.821000000     2.179000000
C     0.001000000    -0.423000000     0.159000000
C     1.033000000     0.683000000     0.175000000
H     0.743000000     1.614000000    -0.316000000
H     1.302000000     0.852000000     1.220000000
H     1.909000000     0.314000000    -0.364000000
C    -0.560000000    -0.750000000    -1.097000000
H    -0.372000000    -0.205000000    -2.019000000
C    -1.425000000    -1.862000000    -1.219000000
H    -1.817000000    -2.148000000    -2.192000000
C    -1.840000000    -2.561000000    -0.042000000
C    -2.966000000    -3.635000000     0.011000000
O    -3.521000000    -3.816000000    -1.085000000
O    -3.344000000    -4.232000000     1.026000000
