17
-85.00166
C    -1.533000000    -1.707000000     0.560000000
H    -1.879000000    -2.411000000     1.312000000
C    -0.534000000    -0.795000000     0.915000000
H    -0.232000000    -0.793000000     1.959000000
C     0.021000000     0.044000000    -0.087000000
C     1.323000000     0.753000000     0.140000000
H     1.898000000     0.821000000    -0.786000000
H     1.185000000     1.795000000     0.437000000
H     1.911000000     0.400000000     0.990000000
C    -0.490000000     0.082000000    -1.339000000
H    -0.027000000     0.719000000    -2.089000000
C    -1.621000000    -0.806000000    -1.583000000
H    -2.104000000    -0.761000000    -2.555000000
C    -2.034000000    -1.786000000    -0.702000000
C    -3.201000000    -2.711000000    -1.012000000
O    -3.819000000    -2.492000000    -2.001000000
O    -3.463000000    -3.695000000    -0.393000000
