17
-92.94195
C    -1.403000000    -2.470000000     0.312000000
H    -1.813000000    -3.056000000     1.131000000
C    -0.481000000    -1.428000000     0.719000000
H    -0.084000000    -1.321000000     1.725000000
C     0.028000000    -0.536000000    -0.239000000
C     0.929000000     0.668000000     0.135000000
H     1.648000000     0.913000000    -0.650000000
H     0.246000000     1.511000000     0.250000000
H     1.391000000     0.439000000     1.098000000
C    -0.201000000    -0.709000000    -1.578000000
H     0.248000000    -0.060000000    -2.325000000
C    -1.133000000    -1.674000000    -2.012000000
H    -1.445000000    -1.851000000    -3.038000000
C    -1.750000000    -2.540000000    -1.044000000
C    -2.842000000    -3.459000000    -1.462000000
O    -3.491000000    -3.315000000    -2.489000000
O    -3.148000000    -4.344000000    -0.710000000
