17
-100.32600
C    -1.482000000    -2.449000000     0.599000000
H    -1.824000000    -3.138000000     1.367000000
C    -0.535000000    -1.430000000     0.992000000
H    -0.166000000    -1.343000000     2.011000000
C    -0.025000000    -0.614000000    -0.051000000
C     1.068000000     0.398000000     0.215000000
H     1.944000000     0.333000000    -0.433000000
H     0.614000000     1.390000000     0.167000000
H     1.445000000     0.347000000     1.238000000
C    -0.605000000    -0.547000000    -1.341000000
H    -0.200000000     0.113000000    -2.104000000
C    -1.591000000    -1.548000000    -1.605000000
H    -1.960000000    -1.587000000    -2.627000000
C    -2.050000000    -2.530000000    -0.672000000
C    -3.134000000    -3.518000000    -1.085000000
O    -3.720000000    -3.323000000    -2.173000000
O    -3.429000000    -4.436000000    -0.305000000
