17
-78.86773
C    -1.139000000    -2.405000000     0.337000000
H    -1.132000000    -3.307000000     0.942000000
C    -0.110000000    -1.506000000     0.595000000
H     0.394000000    -1.662000000     1.546000000
C     0.076000000    -0.365000000    -0.133000000
C     1.295000000     0.396000000     0.089000000
H     0.920000000     1.354000000     0.456000000
H     2.002000000    -0.109000000     0.752000000
H     1.721000000     0.653000000    -0.883000000
C    -0.795000000    -0.147000000    -1.268000000
H    -0.645000000     0.693000000    -1.941000000
C    -1.875000000    -1.042000000    -1.538000000
H    -2.579000000    -0.886000000    -2.351000000
C    -2.084000000    -2.172000000    -0.684000000
C    -3.115000000    -3.221000000    -1.068000000
O    -4.062000000    -2.934000000    -1.735000000
O    -3.258000000    -4.129000000    -0.291000000
