17
-91.53244
C    -1.298000000    -2.952000000     0.592000000
H    -1.528000000    -3.556000000     1.467000000
C    -0.708000000    -1.658000000     0.808000000
H    -0.375000000    -1.396000000     1.809000000
C    -0.511000000    -0.781000000    -0.284000000
C     0.245000000     0.548000000    -0.164000000
H    -0.405000000     1.256000000     0.355000000
H     1.151000000     0.304000000     0.394000000
H     0.577000000     0.993000000    -1.104000000
C    -1.092000000    -1.032000000    -1.481000000
H    -1.082000000    -0.326000000    -2.307000000
C    -1.857000000    -2.233000000    -1.640000000
H    -2.303000000    -2.459000000    -2.605000000
C    -1.926000000    -3.173000000    -0.646000000
C    -2.690000000    -4.424000000    -0.901000000
O    -3.499000000    -4.485000000    -1.802000000
O    -2.573000000    -5.251000000    -0.059000000
