17
-101.07201
C     1.063000000    -2.514000000    -0.175000000
H     1.136000000    -3.518000000    -0.583000000
C     0.155000000    -1.615000000    -0.668000000
H    -0.635000000    -1.938000000    -1.341000000
C     0.208000000    -0.280000000    -0.287000000
C    -0.828000000     0.718000000    -0.746000000
H    -1.023000000     0.534000000    -1.805000000
H    -1.714000000     0.571000000    -0.126000000
H    -0.402000000     1.716000000    -0.630000000
C     1.195000000     0.110000000     0.664000000
H     1.240000000     1.137000000     1.017000000
C     2.163000000    -0.816000000     1.133000000
H     2.940000000    -0.478000000     1.814000000
C     2.065000000    -2.119000000     0.722000000
C     3.059000000    -3.141000000     1.179000000
O     3.944000000    -2.822000000     1.996000000
O     3.086000000    -4.212000000     0.624000000
