17
-93.04304
C    -1.884000000    -0.952000000     1.501000000
H    -2.186000000    -1.382000000     2.452000000
C    -0.644000000    -0.375000000     1.331000000
H    -0.011000000    -0.342000000     2.214000000
C    -0.235000000     0.121000000     0.063000000
C     1.077000000     0.853000000     0.033000000
H     0.997000000     1.882000000     0.389000000
H     1.717000000     0.345000000     0.758000000
H     1.564000000     0.831000000    -0.944000000
C    -1.152000000     0.099000000    -0.991000000
H    -0.855000000     0.658000000    -1.875000000
C    -2.395000000    -0.527000000    -0.873000000
H    -3.160000000    -0.650000000    -1.635000000
C    -2.710000000    -1.034000000     0.380000000
C    -4.075000000    -1.785000000     0.517000000
O    -5.025000000    -1.480000000    -0.204000000
O    -4.361000000    -2.332000000     1.571000000
