17
-85.18359
C    -1.647000000    -1.423000000     1.498000000
H    -1.812000000    -1.810000000     2.500000000
C    -0.418000000    -0.900000000     1.381000000
H     0.256000000    -0.899000000     2.233000000
C    -0.052000000    -0.302000000     0.175000000
C     1.300000000     0.377000000    -0.013000000
H     1.155000000     1.437000000    -0.231000000
H     1.834000000     0.302000000     0.937000000
H     1.952000000    -0.107000000    -0.743000000
C    -0.947000000    -0.359000000    -0.891000000
H    -0.685000000     0.142000000    -1.820000000
C    -2.263000000    -0.927000000    -0.746000000
H    -2.942000000    -0.899000000    -1.595000000
C    -2.616000000    -1.395000000     0.507000000
C    -3.966000000    -1.878000000     0.773000000
O    -4.841000000    -1.778000000    -0.020000000
O    -4.238000000    -2.542000000     1.751000000
