17
-95.70269
C    -1.984000000    -1.348000000     1.716000000
H    -2.015000000    -2.027000000     2.564000000
C    -0.734000000    -0.934000000     1.274000000
H     0.106000000    -1.149000000     1.929000000
C    -0.571000000    -0.220000000     0.123000000
C     0.868000000     0.167000000    -0.243000000
H     0.891000000     0.924000000    -1.029000000
H     1.331000000     0.610000000     0.641000000
H     1.359000000    -0.777000000    -0.488000000
C    -1.695000000     0.089000000    -0.596000000
H    -1.693000000     0.680000000    -1.508000000
C    -2.968000000    -0.261000000    -0.192000000
H    -3.805000000     0.028000000    -0.822000000
C    -3.108000000    -1.059000000     0.927000000
C    -4.465000000    -1.599000000     1.283000000
O    -5.494000000    -1.282000000     0.643000000
O    -4.584000000    -2.469000000     2.117000000
