17
-100.28946
C    -2.500000000    -1.139000000     1.602000000
H    -2.853000000    -1.625000000     2.509000000
C    -1.170000000    -0.887000000     1.441000000
H    -0.525000000    -1.312000000     2.206000000
C    -0.710000000    -0.181000000     0.308000000
C     0.727000000     0.254000000     0.095000000
H     0.755000000     1.205000000    -0.443000000
H     1.212000000     0.344000000     1.069000000
H     1.333000000    -0.480000000    -0.440000000
C    -1.646000000     0.113000000    -0.681000000
H    -1.201000000     0.604000000    -1.543000000
C    -2.993000000    -0.089000000    -0.460000000
H    -3.696000000     0.261000000    -1.211000000
C    -3.465000000    -0.639000000     0.695000000
C    -4.967000000    -0.927000000     0.859000000
O    -5.719000000    -0.902000000    -0.142000000
O    -5.334000000    -1.394000000     1.942000000
