17
-100.20882
C    -2.579000000    -1.151000000     1.604000000
H    -2.984000000    -1.756000000     2.412000000
C    -1.263000000    -0.714000000     1.543000000
H    -0.509000000    -1.032000000     2.258000000
C    -0.798000000    -0.021000000     0.374000000
C     0.673000000     0.422000000     0.260000000
H     1.051000000     1.024000000     1.089000000
H     1.363000000    -0.405000000     0.078000000
H     0.728000000     0.996000000    -0.667000000
C    -1.700000000     0.149000000    -0.657000000
H    -1.366000000     0.581000000    -1.597000000
C    -3.014000000    -0.159000000    -0.564000000
H    -3.731000000     0.066000000    -1.349000000
C    -3.494000000    -0.792000000     0.598000000
C    -4.984000000    -1.098000000     0.788000000
O    -5.787000000    -0.837000000    -0.112000000
O    -5.259000000    -1.677000000     1.811000000
