17
-97.70080
C    -2.911000000    -1.004000000     1.918000000
H    -3.189000000    -1.302000000     2.926000000
C    -1.519000000    -0.874000000     1.665000000
H    -0.800000000    -1.055000000     2.460000000
C    -1.146000000    -0.416000000     0.431000000
C     0.290000000    -0.147000000     0.123000000
H     0.450000000     0.859000000    -0.272000000
H     0.888000000    -0.265000000     1.030000000
H     0.668000000    -0.871000000    -0.602000000
C    -2.102000000    -0.237000000    -0.574000000
H    -1.756000000    -0.016000000    -1.581000000
C    -3.449000000    -0.413000000    -0.310000000
H    -4.105000000    -0.385000000    -1.176000000
C    -3.930000000    -0.757000000     0.978000000
C    -5.370000000    -0.943000000     1.203000000
O    -6.150000000    -0.778000000     0.297000000
O    -5.824000000    -1.284000000     2.302000000
