17
-100.27298
C    -2.891000000    -0.424000000     2.015000000
H    -3.288000000    -0.492000000     3.025000000
C    -1.561000000    -0.305000000     1.837000000
H    -0.860000000    -0.293000000     2.668000000
C    -1.064000000    -0.160000000     0.522000000
C     0.433000000    -0.043000000     0.381000000
H     0.690000000     0.831000000    -0.220000000
H     0.793000000     0.103000000     1.402000000
H     0.901000000    -0.953000000    -0.001000000
C    -1.886000000    -0.112000000    -0.595000000
H    -1.509000000    -0.187000000    -1.612000000
C    -3.230000000    -0.259000000    -0.375000000
H    -3.860000000    -0.192000000    -1.258000000
C    -3.766000000    -0.486000000     0.928000000
C    -5.255000000    -0.647000000     1.117000000
O    -5.932000000    -0.682000000     0.084000000
O    -5.754000000    -0.658000000     2.249000000
