17
-95.61886
C    -3.216000000    -0.693000000     1.687000000
H    -3.543000000    -0.584000000     2.718000000
C    -1.848000000    -0.566000000     1.350000000
H    -1.143000000    -0.449000000     2.169000000
C    -1.472000000    -0.624000000     0.020000000
C    -0.021000000    -0.501000000    -0.307000000
H     0.071000000     0.407000000    -0.906000000
H     0.553000000    -0.457000000     0.620000000
H     0.356000000    -1.312000000    -0.934000000
C    -2.436000000    -0.856000000    -0.951000000
H    -2.105000000    -0.972000000    -1.980000000
C    -3.754000000    -0.984000000    -0.636000000
H    -4.432000000    -1.213000000    -1.454000000
C    -4.192000000    -0.892000000     0.664000000
C    -5.654000000    -0.993000000     1.042000000
O    -6.489000000    -1.218000000     0.150000000
O    -6.036000000    -0.813000000     2.136000000
