17
-90.20012
C    -1.642000000    -0.713000000     2.059000000
H    -1.780000000    -0.696000000     3.137000000
C    -0.518000000    -0.104000000     1.518000000
H     0.180000000     0.314000000     2.238000000
C    -0.219000000    -0.142000000     0.138000000
C     1.027000000     0.625000000    -0.336000000
H     0.940000000     1.041000000    -1.342000000
H     1.288000000     1.432000000     0.352000000
H     1.863000000    -0.077000000    -0.320000000
C    -1.075000000    -0.777000000    -0.716000000
H    -0.864000000    -0.792000000    -1.782000000
C    -2.248000000    -1.362000000    -0.173000000
H    -2.904000000    -1.995000000    -0.765000000
C    -2.528000000    -1.370000000     1.186000000
C    -3.699000000    -2.161000000     1.595000000
O    -4.410000000    -2.813000000     0.863000000
O    -3.872000000    -2.350000000     2.770000000
