17
-91.27229
C     0.486000000    -2.068000000    -0.193000000
H     0.429000000    -2.941000000    -0.838000000
C    -0.219000000    -0.920000000    -0.565000000
H    -0.942000000    -0.948000000    -1.376000000
C     0.048000000     0.306000000     0.037000000
C    -0.782000000     1.456000000    -0.385000000
H    -1.852000000     1.305000000    -0.224000000
H    -0.303000000     2.364000000    -0.014000000
H    -0.725000000     1.490000000    -1.475000000
C     1.051000000     0.399000000     0.900000000
H     1.263000000     1.306000000     1.459000000
C     1.828000000    -0.760000000     1.274000000
H     2.754000000    -0.643000000     1.830000000
C     1.488000000    -2.004000000     0.713000000
C     2.496000000    -3.179000000     0.805000000
O     3.438000000    -3.059000000     1.539000000
O     2.198000000    -4.237000000     0.237000000
