17
-97.87591
C    -1.854000000    -0.231000000     2.025000000
H    -2.054000000    -0.080000000     3.083000000
C    -0.666000000     0.263000000     1.483000000
H    -0.051000000     0.835000000     2.173000000
C    -0.378000000     0.071000000     0.158000000
C     0.832000000     0.668000000    -0.438000000
H     1.107000000     1.638000000    -0.019000000
H     1.702000000     0.009000000    -0.398000000
H     0.685000000     0.820000000    -1.509000000
C    -1.323000000    -0.649000000    -0.584000000
H    -1.177000000    -0.867000000    -1.639000000
C    -2.496000000    -1.241000000    -0.100000000
H    -3.142000000    -1.797000000    -0.775000000
C    -2.710000000    -1.018000000     1.284000000
C    -3.934000000    -1.569000000     1.938000000
O    -4.661000000    -2.291000000     1.286000000
O    -4.289000000    -1.220000000     3.073000000
