17
-94.47030
C    -2.228000000     0.021000000     1.563000000
H    -2.532000000     0.322000000     2.562000000
C    -0.948000000     0.386000000     1.124000000
H    -0.241000000     0.873000000     1.791000000
C    -0.568000000    -0.052000000    -0.151000000
C     0.789000000     0.305000000    -0.658000000
H     1.221000000     1.270000000    -0.381000000
H     1.495000000    -0.404000000    -0.220000000
H     0.982000000     0.216000000    -1.729000000
C    -1.400000000    -0.799000000    -0.891000000
H    -1.052000000    -1.141000000    -1.863000000
C    -2.676000000    -1.218000000    -0.448000000
H    -3.419000000    -1.744000000    -1.041000000
C    -3.088000000    -0.774000000     0.771000000
C    -4.377000000    -1.215000000     1.380000000
O    -5.048000000    -2.104000000     0.866000000
O    -4.728000000    -0.827000000     2.477000000
