17
-99.19664
C    -2.319000000     0.424000000     2.697000000
H    -2.327000000     0.669000000     3.756000000
C    -1.200000000     0.663000000     1.919000000
H    -0.388000000     1.236000000     2.358000000
C    -1.178000000     0.296000000     0.579000000
C     0.113000000     0.488000000    -0.156000000
H     0.390000000    -0.366000000    -0.778000000
H     0.126000000     1.418000000    -0.730000000
H     0.960000000     0.668000000     0.509000000
C    -2.276000000    -0.395000000     0.019000000
H    -2.260000000    -0.733000000    -1.013000000
C    -3.401000000    -0.612000000     0.767000000
H    -4.229000000    -1.217000000     0.408000000
C    -3.428000000    -0.207000000     2.135000000
C    -4.506000000    -0.690000000     3.049000000
O    -5.410000000    -1.310000000     2.571000000
O    -4.457000000    -0.405000000     4.236000000
