17
-94.83214
C    -1.123000000     0.117000000     2.187000000
H    -1.081000000     0.106000000     3.273000000
C     0.088000000     0.183000000     1.507000000
H     1.031000000     0.415000000     1.995000000
C     0.078000000     0.122000000     0.103000000
C     1.324000000     0.432000000    -0.730000000
H     1.992000000    -0.420000000    -0.873000000
H     1.017000000     0.752000000    -1.728000000
H     1.877000000     1.264000000    -0.289000000
C    -1.124000000    -0.154000000    -0.574000000
H    -1.014000000    -0.113000000    -1.655000000
C    -2.273000000    -0.430000000     0.123000000
H    -3.198000000    -0.777000000    -0.330000000
C    -2.258000000    -0.277000000     1.568000000
C    -3.599000000    -0.398000000     2.241000000
O    -4.647000000    -0.635000000     1.620000000
O    -3.731000000    -0.181000000     3.435000000
