17
-99.99708
C    -3.687000000    -0.171000000     1.825000000
H    -4.366000000     0.304000000     2.528000000
C    -2.460000000     0.413000000     1.552000000
H    -2.092000000     1.206000000     2.198000000
C    -1.578000000    -0.339000000     0.748000000
C    -0.182000000     0.126000000     0.599000000
H    -0.229000000     1.174000000     0.294000000
H     0.371000000     0.103000000     1.540000000
H     0.419000000    -0.430000000    -0.124000000
C    -1.973000000    -1.573000000     0.224000000
H    -1.316000000    -2.049000000    -0.499000000
C    -3.281000000    -1.998000000     0.399000000
H    -3.593000000    -2.890000000    -0.138000000
C    -4.193000000    -1.286000000     1.192000000
C    -5.633000000    -1.756000000     1.462000000
O    -6.048000000    -2.851000000     1.076000000
O    -6.285000000    -0.953000000     2.101000000
