17
-91.68360
C    -3.081000000    -0.483000000     0.193000000
H    -3.991000000     0.049000000    -0.068000000
C    -1.887000000     0.222000000    -0.077000000
H    -2.037000000     1.288000000    -0.226000000
C    -0.665000000    -0.384000000    -0.252000000
C     0.494000000     0.459000000    -0.637000000
H     0.655000000     0.563000000    -1.712000000
H     0.466000000     1.450000000    -0.178000000
H     1.413000000     0.072000000    -0.193000000
C    -0.633000000    -1.802000000     0.003000000
H     0.350000000    -2.243000000    -0.140000000
C    -1.811000000    -2.496000000     0.400000000
H    -1.782000000    -3.564000000     0.601000000
C    -3.071000000    -1.827000000     0.573000000
C    -4.365000000    -2.619000000     0.761000000
O    -4.283000000    -3.792000000     1.082000000
O    -5.403000000    -2.093000000     0.564000000
