17
-98.94182
C    -2.570000000    -0.106000000     0.769000000
H    -3.458000000     0.401000000     1.140000000
C    -1.475000000     0.667000000     0.348000000
H    -1.560000000     1.743000000     0.219000000
C    -0.286000000    -0.031000000     0.063000000
C     0.827000000     0.778000000    -0.599000000
H     1.171000000     0.354000000    -1.544000000
H     0.637000000     1.824000000    -0.851000000
H     1.764000000     0.721000000    -0.040000000
C    -0.253000000    -1.442000000     0.160000000
H     0.716000000    -1.913000000     0.014000000
C    -1.328000000    -2.198000000     0.594000000
H    -1.194000000    -3.267000000     0.738000000
C    -2.546000000    -1.511000000     0.902000000
C    -3.778000000    -2.228000000     1.330000000
O    -3.657000000    -3.375000000     1.762000000
O    -4.897000000    -1.703000000     1.266000000
