17
-100.87405
C     0.211000000    -2.638000000     0.060000000
H    -0.125000000    -3.636000000    -0.211000000
C    -0.422000000    -1.445000000    -0.443000000
H    -1.218000000    -1.465000000    -1.182000000
C     0.046000000    -0.203000000    -0.095000000
C    -0.622000000     1.066000000    -0.601000000
H    -1.513000000     0.764000000    -1.154000000
H    -0.918000000     1.770000000     0.180000000
H     0.010000000     1.678000000    -1.249000000
C     0.984000000    -0.046000000     0.970000000
H     1.197000000     0.948000000     1.353000000
C     1.616000000    -1.199000000     1.393000000
H     2.348000000    -1.160000000     2.195000000
C     1.266000000    -2.479000000     0.990000000
C     2.035000000    -3.700000000     1.399000000
O     3.088000000    -3.459000000     2.023000000
O     1.673000000    -4.843000000     1.099000000
