17
-90.10418
C    -2.593000000    -2.291000000     0.024000000
H    -3.520000000    -2.509000000    -0.501000000
C    -1.731000000    -1.205000000    -0.322000000
H    -1.822000000    -0.604000000    -1.223000000
C    -0.547000000    -1.056000000     0.309000000
C     0.309000000     0.118000000    -0.128000000
H    -0.007000000     0.309000000    -1.155000000
H     0.165000000     0.970000000     0.540000000
H     1.390000000    -0.035000000    -0.162000000
C    -0.118000000    -1.939000000     1.231000000
H     0.847000000    -1.674000000     1.655000000
C    -0.979000000    -2.971000000     1.602000000
H    -0.687000000    -3.645000000     2.403000000
C    -2.222000000    -3.104000000     1.034000000
C    -3.089000000    -4.247000000     1.535000000
O    -2.707000000    -4.859000000     2.544000000
O    -4.141000000    -4.563000000     1.025000000
