17
-89.95178
C    -3.852000000    -2.023000000     0.105000000
H    -4.916000000    -2.143000000    -0.083000000
C    -3.215000000    -0.745000000    -0.022000000
H    -3.797000000     0.080000000    -0.425000000
C    -1.858000000    -0.624000000     0.343000000
C    -1.184000000     0.658000000     0.010000000
H    -0.967000000     0.913000000    -1.030000000
H    -1.771000000     1.455000000     0.472000000
H    -0.279000000     0.623000000     0.620000000
C    -1.131000000    -1.717000000     0.865000000
H    -0.102000000    -1.588000000     1.189000000
C    -1.735000000    -3.003000000     0.994000000
H    -1.171000000    -3.778000000     1.506000000
C    -3.127000000    -3.148000000     0.638000000
C    -3.826000000    -4.422000000     0.783000000
O    -3.329000000    -5.384000000     1.297000000
O    -5.049000000    -4.422000000     0.601000000
