17
-89.78708
C    -2.529000000     0.240000000     0.026000000
H    -3.435000000     0.833000000    -0.067000000
C    -1.247000000     0.755000000    -0.018000000
H    -0.983000000     1.809000000    -0.026000000
C    -0.183000000    -0.123000000    -0.082000000
C     1.185000000     0.395000000    -0.336000000
H     1.351000000     0.279000000    -1.409000000
H     1.318000000     1.456000000    -0.117000000
H     1.887000000    -0.173000000     0.280000000
C    -0.386000000    -1.509000000    -0.040000000
H     0.493000000    -2.139000000    -0.149000000
C    -1.679000000    -2.062000000    -0.069000000
H    -1.936000000    -3.118000000    -0.094000000
C    -2.739000000    -1.158000000     0.072000000
C    -4.100000000    -1.641000000     0.484000000
O    -4.316000000    -2.801000000     0.717000000
O    -4.930000000    -0.852000000     0.994000000
