17
-97.15771
C    -2.603000000     0.261000000     0.822000000
H    -3.496000000     0.858000000     0.986000000
C    -1.440000000     0.854000000     0.393000000
H    -1.369000000     1.938000000     0.358000000
C    -0.380000000     0.081000000     0.009000000
C     0.907000000     0.709000000    -0.472000000
H     0.978000000     1.646000000     0.083000000
H     1.785000000     0.081000000    -0.305000000
H     0.880000000     0.999000000    -1.524000000
C    -0.579000000    -1.326000000    -0.044000000
H     0.221000000    -1.929000000    -0.467000000
C    -1.713000000    -1.931000000     0.541000000
H    -1.959000000    -2.988000000     0.605000000
C    -2.753000000    -1.124000000     0.886000000
C    -4.100000000    -1.717000000     1.240000000
O    -4.097000000    -2.832000000     1.819000000
O    -5.137000000    -1.071000000     1.175000000
