17
-97.28315
C    -0.019000000    -3.010000000     0.268000000
H    -0.208000000    -4.029000000    -0.061000000
C    -0.468000000    -1.863000000    -0.461000000
H    -1.032000000    -2.025000000    -1.375000000
C    -0.296000000    -0.628000000     0.033000000
C    -0.836000000     0.598000000    -0.695000000
H    -0.339000000     0.734000000    -1.658000000
H    -1.897000000     0.442000000    -0.902000000
H    -0.633000000     1.551000000    -0.202000000
C     0.427000000    -0.401000000     1.215000000
H     0.574000000     0.576000000     1.669000000
C     0.869000000    -1.547000000     1.923000000
H     1.438000000    -1.393000000     2.837000000
C     0.642000000    -2.855000000     1.491000000
C     1.232000000    -4.066000000     2.229000000
O     1.992000000    -3.887000000     3.197000000
O     0.989000000    -5.170000000     1.878000000
