17
-92.46515
C    -2.069000000    -0.205000000     0.681000000
H    -3.004000000     0.279000000     0.950000000
C    -1.000000000     0.582000000     0.283000000
H    -1.174000000     1.655000000     0.298000000
C     0.256000000    -0.015000000    -0.085000000
C     1.288000000     0.874000000    -0.691000000
H     1.961000000     0.283000000    -1.316000000
H     0.989000000     1.711000000    -1.325000000
H     1.822000000     1.382000000     0.115000000
C     0.362000000    -1.413000000    -0.257000000
H     1.253000000    -1.869000000    -0.679000000
C    -0.725000000    -2.201000000     0.145000000
H    -0.580000000    -3.277000000     0.084000000
C    -1.869000000    -1.615000000     0.643000000
C    -3.023000000    -2.400000000     1.130000000
O    -2.858000000    -3.619000000     1.102000000
O    -3.807000000    -1.847000000     1.917000000
