17
-97.89880
C    -1.999000000    -0.763000000     1.393000000
H    -2.945000000    -0.415000000     1.799000000
C    -1.177000000     0.224000000     0.756000000
H    -1.425000000     1.278000000     0.857000000
C    -0.104000000    -0.189000000    -0.067000000
C     0.690000000     0.811000000    -0.921000000
H     0.730000000     1.809000000    -0.479000000
H     1.736000000     0.565000000    -1.115000000
H     0.222000000     0.851000000    -1.907000000
C     0.223000000    -1.566000000    -0.112000000
H     0.958000000    -1.917000000    -0.832000000
C    -0.502000000    -2.539000000     0.592000000
H    -0.175000000    -3.567000000     0.460000000
C    -1.635000000    -2.110000000     1.363000000
C    -2.461000000    -3.176000000     2.035000000
O    -2.477000000    -4.254000000     1.502000000
O    -3.173000000    -2.867000000     2.968000000
