17
-86.83875
C    -1.756000000    -1.000000000     1.642000000
H    -2.631000000    -0.693000000     2.208000000
C    -0.937000000    -0.084000000     1.043000000
H    -1.158000000     0.973000000     1.165000000
C     0.088000000    -0.511000000     0.339000000
C     0.987000000     0.468000000    -0.435000000
H     1.983000000     0.021000000    -0.391000000
H     0.628000000     0.545000000    -1.464000000
H     0.875000000     1.447000000     0.036000000
C     0.391000000    -1.821000000     0.202000000
H     1.251000000    -2.080000000    -0.411000000
C    -0.460000000    -2.808000000     0.780000000
H    -0.235000000    -3.852000000     0.576000000
C    -1.625000000    -2.342000000     1.477000000
C    -2.703000000    -3.363000000     1.911000000
O    -2.352000000    -4.550000000     1.986000000
O    -3.691000000    -2.990000000     2.499000000
