17
-93.07708
C    -1.576000000    -0.573000000     1.591000000
H    -2.415000000    -0.174000000     2.156000000
C    -0.866000000     0.303000000     0.746000000
H    -1.172000000     1.340000000     0.631000000
C     0.142000000    -0.168000000    -0.072000000
C     0.976000000     0.756000000    -0.849000000
H     0.487000000     1.733000000    -0.828000000
H     1.992000000     0.853000000    -0.462000000
H     1.168000000     0.546000000    -1.904000000
C     0.456000000    -1.521000000    -0.008000000
H     1.178000000    -1.939000000    -0.705000000
C    -0.197000000    -2.363000000     0.808000000
H    -0.017000000    -3.435000000     0.813000000
C    -1.234000000    -1.930000000     1.642000000
C    -1.946000000    -2.910000000     2.581000000
O    -2.084000000    -4.111000000     2.279000000
O    -2.577000000    -2.474000000     3.474000000
