17
-91.82425
C    -2.705000000    -1.096000000    -0.093000000
H    -3.658000000    -0.627000000     0.140000000
C    -1.591000000    -0.171000000    -0.219000000
H    -1.800000000     0.895000000    -0.185000000
C    -0.318000000    -0.590000000    -0.525000000
C     0.770000000     0.449000000    -0.610000000
H     1.729000000     0.133000000    -1.025000000
H     0.502000000     1.366000000    -1.140000000
H     1.030000000     0.632000000     0.435000000
C    -0.081000000    -1.970000000    -0.437000000
H     0.891000000    -2.380000000    -0.699000000
C    -1.097000000    -2.875000000    -0.310000000
H    -0.777000000    -3.904000000    -0.456000000
C    -2.399000000    -2.446000000    -0.161000000
C    -3.516000000    -3.401000000     0.057000000
O    -3.251000000    -4.578000000     0.325000000
O    -4.694000000    -3.067000000     0.109000000
