17
-88.92741
C    -2.437000000    -0.475000000     0.134000000
H    -3.387000000     0.010000000     0.346000000
C    -1.287000000     0.289000000     0.063000000
H    -1.410000000     1.363000000     0.174000000
C    -0.037000000    -0.282000000    -0.130000000
C     1.219000000     0.523000000    -0.421000000
H     2.068000000     0.449000000     0.262000000
H     1.742000000     0.082000000    -1.272000000
H     0.992000000     1.504000000    -0.845000000
C     0.059000000    -1.630000000    -0.136000000
H     1.029000000    -2.109000000    -0.243000000
C    -1.112000000    -2.424000000    -0.053000000
H    -1.007000000    -3.505000000    -0.003000000
C    -2.404000000    -1.866000000     0.072000000
C    -3.621000000    -2.720000000     0.323000000
O    -3.656000000    -3.888000000     0.088000000
O    -4.555000000    -2.276000000     0.999000000
