17
-90.35478
C    -2.498000000    -0.005000000     1.417000000
H    -3.256000000     0.716000000     1.711000000
C    -1.458000000     0.328000000     0.585000000
H    -1.446000000     1.382000000     0.320000000
C    -0.466000000    -0.497000000     0.190000000
C     0.776000000     0.006000000    -0.523000000
H     0.700000000    -0.213000000    -1.590000000
H     0.908000000     1.075000000    -0.345000000
H     1.671000000    -0.504000000    -0.161000000
C    -0.505000000    -1.797000000     0.602000000
H     0.169000000    -2.574000000     0.250000000
C    -1.612000000    -2.269000000     1.274000000
H    -1.605000000    -3.319000000     1.555000000
C    -2.590000000    -1.365000000     1.698000000
C    -3.839000000    -1.844000000     2.338000000
O    -4.010000000    -3.016000000     2.732000000
O    -4.753000000    -1.082000000     2.530000000
