17
-91.23616
C    -2.249000000     0.444000000     1.769000000
H    -3.017000000     1.171000000     2.018000000
C    -1.186000000     0.825000000     0.933000000
H    -1.224000000     1.869000000     0.630000000
C    -0.111000000    -0.016000000     0.614000000
C     0.896000000     0.537000000    -0.343000000
H     0.494000000     0.745000000    -1.337000000
H     1.150000000     1.513000000     0.078000000
H     1.806000000    -0.061000000    -0.417000000
C    -0.176000000    -1.366000000     0.896000000
H     0.662000000    -1.980000000     0.575000000
C    -1.264000000    -1.824000000     1.645000000
H    -1.284000000    -2.893000000     1.842000000
C    -2.288000000    -0.913000000     2.113000000
C    -3.421000000    -1.388000000     2.930000000
O    -3.551000000    -2.578000000     3.061000000
O    -4.258000000    -0.645000000     3.366000000
