17
-98.03514
C    -2.707000000     0.113000000     1.668000000
H    -3.481000000     0.841000000     1.898000000
C    -1.464000000     0.520000000     1.120000000
H    -1.232000000     1.555000000     0.885000000
C    -0.369000000    -0.321000000     0.970000000
C     0.928000000     0.192000000     0.412000000
H     1.263000000     1.039000000     1.015000000
H     1.635000000    -0.638000000     0.472000000
H     0.807000000     0.548000000    -0.614000000
C    -0.486000000    -1.657000000     1.433000000
H     0.294000000    -2.392000000     1.252000000
C    -1.691000000    -2.077000000     2.023000000
H    -1.823000000    -3.063000000     2.461000000
C    -2.757000000    -1.150000000     2.158000000
C    -4.094000000    -1.713000000     2.701000000
O    -4.198000000    -2.929000000     2.839000000
O    -4.826000000    -0.897000000     3.327000000
