17
-100.12649
C    -2.400000000    -0.143000000     1.570000000
H    -3.267000000     0.413000000     1.916000000
C    -1.353000000     0.487000000     0.865000000
H    -1.443000000     1.552000000     0.669000000
C    -0.234000000    -0.196000000     0.453000000
C     0.784000000     0.567000000    -0.414000000
H     0.783000000     0.044000000    -1.372000000
H     0.501000000     1.613000000    -0.552000000
H     1.770000000     0.416000000     0.031000000
C    -0.089000000    -1.514000000     0.822000000
H     0.825000000    -1.989000000     0.475000000
C    -1.125000000    -2.161000000     1.504000000
H    -0.964000000    -3.181000000     1.841000000
C    -2.317000000    -1.514000000     1.899000000
C    -3.318000000    -2.263000000     2.757000000
O    -3.028000000    -3.425000000     3.078000000
O    -4.313000000    -1.731000000     3.187000000
