17
-95.52175
C    -2.581000000    -0.235000000    -1.003000000
H    -3.397000000     0.321000000    -1.457000000
C    -1.462000000     0.467000000    -0.582000000
H    -1.362000000     1.517000000    -0.846000000
C    -0.417000000    -0.227000000    -0.146000000
C     0.835000000     0.533000000     0.155000000
H     1.611000000     0.361000000    -0.594000000
H     0.617000000     1.603000000     0.156000000
H     1.271000000     0.287000000     1.126000000
C    -0.479000000    -1.624000000    -0.001000000
H     0.411000000    -2.137000000     0.355000000
C    -1.557000000    -2.380000000    -0.467000000
H    -1.517000000    -3.466000000    -0.450000000
C    -2.692000000    -1.632000000    -0.888000000
C    -4.013000000    -2.343000000    -1.123000000
O    -4.185000000    -3.588000000    -0.913000000
O    -5.014000000    -1.698000000    -1.527000000
