17
-97.80096
C    -1.423000000    -2.486000000    -1.047000000
H    -1.759000000    -2.951000000    -1.970000000
C    -0.789000000    -1.276000000    -1.165000000
H    -0.592000000    -0.796000000    -2.121000000
C    -0.266000000    -0.646000000     0.002000000
C     0.367000000     0.724000000    -0.048000000
H     1.180000000     0.733000000     0.681000000
H     0.796000000     0.801000000    -1.049000000
H    -0.359000000     1.534000000     0.052000000
C    -0.409000000    -1.246000000     1.239000000
H     0.004000000    -0.780000000     2.130000000
C    -1.038000000    -2.484000000     1.271000000
H    -1.121000000    -2.993000000     2.228000000
C    -1.556000000    -3.131000000     0.173000000
C    -2.405000000    -4.345000000     0.331000000
O    -2.762000000    -4.697000000     1.448000000
O    -2.958000000    -4.833000000    -0.651000000
