17
-85.42272
C    -1.284000000    -2.582000000    -0.497000000
H    -1.499000000    -3.275000000    -1.307000000
C    -0.635000000    -1.406000000    -0.781000000
H    -0.310000000    -1.149000000    -1.786000000
C    -0.361000000    -0.512000000     0.240000000
C     0.456000000     0.773000000     0.016000000
H    -0.273000000     1.562000000    -0.178000000
H     0.999000000     1.186000000     0.869000000
H     1.052000000     0.580000000    -0.878000000
C    -0.810000000    -0.851000000     1.519000000
H    -0.665000000    -0.133000000     2.321000000
C    -1.388000000    -2.062000000     1.829000000
H    -1.617000000    -2.416000000     2.831000000
C    -1.667000000    -2.901000000     0.854000000
C    -2.473000000    -4.133000000     1.167000000
O    -2.984000000    -4.299000000     2.251000000
O    -2.647000000    -4.972000000     0.352000000
