17
-94.10689
C    -1.353000000    -2.362000000    -0.499000000
H    -1.815000000    -2.865000000    -1.344000000
C    -0.643000000    -1.146000000    -0.754000000
H    -0.646000000    -0.815000000    -1.790000000
C    -0.051000000    -0.454000000     0.307000000
C     0.637000000     0.862000000     0.072000000
H    -0.057000000     1.703000000     0.018000000
H     1.308000000     1.043000000     0.915000000
H     1.011000000     0.876000000    -0.954000000
C    -0.073000000    -0.972000000     1.583000000
H     0.305000000    -0.448000000     2.456000000
C    -0.597000000    -2.253000000     1.780000000
H    -0.528000000    -2.675000000     2.779000000
C    -1.240000000    -2.964000000     0.763000000
C    -1.982000000    -4.189000000     1.126000000
O    -1.937000000    -4.567000000     2.251000000
O    -2.573000000    -4.906000000     0.277000000
