17
-96.37502
C    -0.605000000    -2.559000000    -0.179000000
H    -0.793000000    -3.354000000    -0.896000000
C    -0.203000000    -1.299000000    -0.598000000
H    -0.156000000    -1.106000000    -1.666000000
C     0.075000000    -0.241000000     0.270000000
C     0.508000000     1.117000000    -0.245000000
H     1.561000000     1.327000000    -0.047000000
H     0.334000000     1.133000000    -1.323000000
H    -0.035000000     1.891000000     0.302000000
C     0.073000000    -0.462000000     1.657000000
H     0.262000000     0.366000000     2.336000000
C    -0.256000000    -1.775000000     2.109000000
H    -0.454000000    -1.988000000     3.157000000
C    -0.696000000    -2.771000000     1.230000000
C    -1.139000000    -4.087000000     1.772000000
O    -1.417000000    -4.268000000     2.937000000
O    -1.378000000    -4.963000000     0.968000000
