17
-83.21080
C    -1.066000000    -3.513000000    -0.034000000
H    -1.220000000    -4.288000000    -0.780000000
C    -0.615000000    -2.295000000    -0.441000000
H    -0.374000000    -2.062000000    -1.475000000
C    -0.229000000    -1.315000000     0.465000000
C     0.365000000    -0.012000000     0.008000000
H     1.042000000     0.389000000     0.766000000
H     0.960000000    -0.231000000    -0.881000000
H    -0.489000000     0.640000000    -0.186000000
C    -0.500000000    -1.460000000     1.807000000
H    -0.262000000    -0.699000000     2.546000000
C    -0.897000000    -2.711000000     2.310000000
H    -0.996000000    -2.920000000     3.372000000
C    -1.235000000    -3.771000000     1.374000000
C    -1.438000000    -5.151000000     1.828000000
O    -1.483000000    -5.455000000     2.990000000
O    -1.665000000    -6.063000000     1.088000000
