17
-95.36764
C    -0.105000000    -2.882000000    -0.004000000
H     0.144000000    -3.738000000    -0.626000000
C     0.312000000    -1.628000000    -0.398000000
H     0.859000000    -1.657000000    -1.336000000
C     0.134000000    -0.540000000     0.487000000
C     0.521000000     0.860000000     0.134000000
H     1.166000000     0.859000000    -0.747000000
H    -0.354000000     1.478000000    -0.080000000
H     1.025000000     1.373000000     0.956000000
C    -0.353000000    -0.788000000     1.789000000
H    -0.401000000     0.025000000     2.509000000
C    -0.891000000    -2.050000000     2.117000000
H    -1.327000000    -2.277000000     3.087000000
C    -0.834000000    -3.044000000     1.148000000
C    -1.562000000    -4.345000000     1.503000000
O    -2.291000000    -4.397000000     2.472000000
O    -1.336000000    -5.396000000     0.928000000
