17
-93.42128
C    -1.497000000    -1.625000000    -1.076000000
H    -1.964000000    -1.738000000    -2.051000000
C    -0.377000000    -0.743000000    -1.022000000
H     0.078000000    -0.446000000    -1.964000000
C     0.138000000    -0.406000000     0.246000000
C     1.192000000     0.689000000     0.399000000
H     2.047000000     0.441000000    -0.233000000
H     0.887000000     1.659000000     0.002000000
H     1.611000000     0.798000000     1.402000000
C    -0.447000000    -0.950000000     1.381000000
H    -0.042000000    -0.617000000     2.333000000
C    -1.582000000    -1.800000000     1.290000000
H    -2.103000000    -2.115000000     2.191000000
C    -2.043000000    -2.192000000     0.061000000
C    -3.146000000    -3.131000000    -0.100000000
O    -3.689000000    -3.522000000     0.932000000
O    -3.749000000    -3.221000000    -1.164000000
