17
-89.91735
C    -1.081000000    -1.455000000    -2.069000000
H    -1.526000000    -1.322000000    -3.052000000
C    -0.387000000    -0.389000000    -1.491000000
H    -0.122000000     0.413000000    -2.175000000
C     0.010000000    -0.376000000    -0.137000000
C     0.942000000     0.625000000     0.411000000
H     0.419000000     1.583000000     0.434000000
H     1.212000000     0.257000000     1.403000000
H     1.823000000     0.750000000    -0.222000000
C    -0.387000000    -1.470000000     0.640000000
H    -0.094000000    -1.563000000     1.682000000
C    -0.964000000    -2.557000000     0.052000000
H    -1.086000000    -3.437000000     0.679000000
C    -1.287000000    -2.591000000    -1.285000000
C    -2.207000000    -3.659000000    -1.748000000
O    -2.466000000    -4.572000000    -1.035000000
O    -2.937000000    -3.432000000    -2.730000000
