17
-96.67457
C    -1.847000000    -0.936000000    -1.291000000
H    -2.402000000    -0.787000000    -2.214000000
C    -0.774000000    -0.103000000    -0.888000000
H    -0.362000000     0.472000000    -1.713000000
C    -0.135000000    -0.202000000     0.376000000
C     0.926000000     0.780000000     0.692000000
H     1.581000000     0.908000000    -0.172000000
H     0.527000000     1.785000000     0.842000000
H     1.524000000     0.572000000     1.582000000
C    -0.652000000    -1.164000000     1.258000000
H    -0.306000000    -1.296000000     2.279000000
C    -1.724000000    -2.023000000     0.860000000
H    -1.947000000    -2.803000000     1.584000000
C    -2.384000000    -1.857000000    -0.377000000
C    -3.489000000    -2.829000000    -0.828000000
O    -3.835000000    -3.738000000    -0.132000000
O    -4.101000000    -2.624000000    -1.915000000
