17
-95.08997
C    -1.591000000    -1.369000000    -1.591000000
H    -1.740000000    -1.557000000    -2.652000000
C    -0.656000000    -0.423000000    -1.179000000
H    -0.046000000     0.068000000    -1.932000000
C    -0.346000000    -0.164000000     0.164000000
C     0.622000000     0.915000000     0.667000000
H     1.318000000     1.219000000    -0.118000000
H     0.175000000     1.868000000     0.960000000
H     1.184000000     0.651000000     1.565000000
C    -1.096000000    -0.856000000     1.140000000
H    -0.789000000    -0.739000000     2.176000000
C    -2.109000000    -1.710000000     0.727000000
H    -2.651000000    -2.292000000     1.468000000
C    -2.331000000    -2.019000000    -0.583000000
C    -3.153000000    -3.156000000    -0.984000000
O    -3.351000000    -3.984000000    -0.135000000
O    -3.717000000    -3.194000000    -2.095000000
