17
-91.32162
C     1.020000000    -2.408000000    -1.402000000
H     0.639000000    -3.263000000    -1.954000000
C     0.197000000    -1.218000000    -1.323000000
H    -0.741000000    -1.170000000    -1.872000000
C     0.538000000    -0.191000000    -0.480000000
C    -0.447000000     1.066000000    -0.439000000
H    -1.349000000     1.010000000     0.175000000
H     0.059000000     1.927000000     0.003000000
H    -0.755000000     1.331000000    -1.453000000
C     1.690000000    -0.255000000     0.302000000
H     1.897000000     0.519000000     1.036000000
C     2.526000000    -1.333000000     0.088000000
H     3.466000000    -1.268000000     0.630000000
C     2.216000000    -2.465000000    -0.651000000
C     3.102000000    -3.695000000    -0.756000000
O     4.206000000    -3.616000000    -0.322000000
O     2.655000000    -4.641000000    -1.323000000
