17
-92.09531
C    -1.423000000    -0.735000000    -2.053000000
H    -1.611000000    -0.798000000    -3.122000000
C    -0.450000000     0.133000000    -1.544000000
H     0.290000000     0.578000000    -2.204000000
C    -0.287000000     0.302000000    -0.174000000
C     0.794000000     1.140000000     0.413000000
H     1.535000000     0.504000000     0.903000000
H     1.388000000     1.688000000    -0.321000000
H     0.367000000     1.754000000     1.209000000
C    -1.013000000    -0.472000000     0.672000000
H    -0.798000000    -0.481000000     1.737000000
C    -1.970000000    -1.341000000     0.175000000
H    -2.583000000    -1.873000000     0.898000000
C    -2.261000000    -1.434000000    -1.152000000
C    -3.241000000    -2.478000000    -1.654000000
O    -4.159000000    -2.917000000    -1.022000000
O    -3.269000000    -2.708000000    -2.880000000
