17
-99.08112
C    -2.459000000    -0.566000000    -0.765000000
H    -3.175000000    -0.354000000    -1.555000000
C    -1.203000000     0.071000000    -0.784000000
H    -0.982000000     0.747000000    -1.605000000
C    -0.310000000    -0.051000000     0.247000000
C     0.983000000     0.662000000     0.132000000
H     1.149000000     1.319000000     0.988000000
H     1.873000000     0.030000000     0.162000000
H     0.946000000     1.388000000    -0.683000000
C    -0.579000000    -0.899000000     1.312000000
H     0.153000000    -1.060000000     2.099000000
C    -1.865000000    -1.450000000     1.372000000
H    -2.070000000    -2.123000000     2.200000000
C    -2.789000000    -1.393000000     0.329000000
C    -4.153000000    -2.090000000     0.405000000
O    -4.542000000    -2.699000000     1.381000000
O    -4.898000000    -1.859000000    -0.541000000
