17
-96.52209
C    -2.352000000    -1.073000000    -1.617000000
H    -2.774000000    -1.159000000    -2.615000000
C    -1.193000000    -0.346000000    -1.473000000
H    -0.853000000     0.146000000    -2.381000000
C    -0.637000000    -0.140000000    -0.241000000
C     0.565000000     0.669000000    -0.063000000
H     1.407000000     0.060000000     0.273000000
H     0.961000000     1.208000000    -0.926000000
H     0.414000000     1.408000000     0.727000000
C    -1.276000000    -0.702000000     0.877000000
H    -0.761000000    -0.498000000     1.813000000
C    -2.366000000    -1.583000000     0.754000000
H    -2.708000000    -2.120000000     1.635000000
C    -2.938000000    -1.758000000    -0.529000000
C    -4.134000000    -2.627000000    -0.704000000
O    -4.762000000    -2.944000000     0.308000000
O    -4.653000000    -2.857000000    -1.789000000
