17
-93.68463
C    -2.377000000    -0.886000000    -1.795000000
H    -2.838000000    -1.177000000    -2.736000000
C    -1.157000000    -0.277000000    -1.650000000
H    -0.527000000    -0.105000000    -2.520000000
C    -0.661000000    -0.041000000    -0.393000000
C     0.767000000     0.441000000    -0.314000000
H     1.310000000    -0.436000000    -0.673000000
H     1.047000000     1.263000000    -0.977000000
H     1.056000000     0.665000000     0.714000000
C    -1.340000000    -0.301000000     0.761000000
H    -0.833000000    -0.052000000     1.690000000
C    -2.632000000    -0.844000000     0.629000000
H    -3.136000000    -1.176000000     1.533000000
C    -3.129000000    -1.127000000    -0.676000000
C    -4.546000000    -1.678000000    -0.778000000
O    -5.308000000    -1.866000000     0.157000000
O    -4.892000000    -2.140000000    -1.872000000
