17
-97.85404
C    -1.974000000    -1.073000000    -1.172000000
H    -2.552000000    -1.241000000    -2.077000000
C    -0.764000000    -0.344000000    -1.229000000
H    -0.486000000     0.017000000    -2.216000000
C    -0.116000000    -0.047000000    -0.009000000
C     1.033000000     1.007000000     0.126000000
H     1.884000000     0.789000000    -0.524000000
H     0.667000000     2.022000000    -0.043000000
H     1.242000000     1.091000000     1.194000000
C    -0.598000000    -0.530000000     1.216000000
H    -0.072000000    -0.238000000     2.121000000
C    -1.809000000    -1.196000000     1.256000000
H    -2.176000000    -1.580000000     2.205000000
C    -2.528000000    -1.416000000     0.081000000
C    -3.791000000    -2.250000000     0.040000000
O    -4.428000000    -2.402000000     1.067000000
O    -4.126000000    -2.748000000    -1.036000000
