17
-97.61603
C     0.862000000    -2.868000000    -0.919000000
H     0.694000000    -3.813000000    -1.430000000
C     0.039000000    -1.685000000    -1.137000000
H    -0.849000000    -1.718000000    -1.763000000
C     0.363000000    -0.495000000    -0.489000000
C    -0.455000000     0.749000000    -0.585000000
H     0.215000000     1.611000000    -0.591000000
H    -1.030000000     0.704000000    -1.512000000
H    -1.148000000     0.710000000     0.258000000
C     1.576000000    -0.460000000     0.231000000
H     1.939000000     0.524000000     0.517000000
C     2.364000000    -1.608000000     0.439000000
H     3.263000000    -1.543000000     1.047000000
C     2.006000000    -2.787000000    -0.161000000
C     2.807000000    -4.007000000     0.175000000
O     3.844000000    -3.856000000     0.793000000
O     2.519000000    -5.116000000    -0.285000000
