17
-92.55890
C    -3.076000000    -1.675000000    -0.644000000
H    -4.026000000    -1.605000000    -1.168000000
C    -2.006000000    -0.821000000    -0.885000000
H    -2.121000000    -0.063000000    -1.655000000
C    -0.852000000    -0.916000000    -0.192000000
C     0.289000000     0.039000000    -0.393000000
H     0.031000000     0.786000000    -1.145000000
H     0.536000000     0.616000000     0.501000000
H     1.125000000    -0.528000000    -0.810000000
C    -0.703000000    -1.912000000     0.768000000
H     0.209000000    -1.992000000     1.354000000
C    -1.729000000    -2.744000000     1.081000000
H    -1.698000000    -3.367000000     1.971000000
C    -2.944000000    -2.645000000     0.360000000
C    -4.137000000    -3.495000000     0.754000000
O    -3.993000000    -4.244000000     1.677000000
O    -5.211000000    -3.476000000     0.225000000
