17
-95.05902
C    -1.881000000    -1.656000000    -0.975000000
H    -2.569000000    -1.992000000    -1.746000000
C    -1.017000000    -0.593000000    -1.232000000
H    -0.830000000    -0.166000000    -2.214000000
C    -0.158000000    -0.195000000    -0.221000000
C     0.805000000     0.993000000    -0.398000000
H     0.240000000     1.868000000    -0.727000000
H     1.347000000     1.177000000     0.532000000
H     1.448000000     0.657000000    -1.215000000
C    -0.225000000    -0.803000000     1.064000000
H     0.420000000    -0.426000000     1.854000000
C    -1.099000000    -1.839000000     1.322000000
H    -1.123000000    -2.227000000     2.336000000
C    -1.959000000    -2.211000000     0.302000000
C    -3.041000000    -3.141000000     0.714000000
O    -3.205000000    -3.416000000     1.893000000
O    -3.836000000    -3.524000000    -0.099000000
