17
-94.67578
C    -2.652000000    -1.861000000    -0.442000000
H    -3.283000000    -2.434000000    -1.116000000
C    -1.746000000    -0.832000000    -0.792000000
H    -1.621000000    -0.583000000    -1.843000000
C    -0.933000000    -0.297000000     0.179000000
C     0.080000000     0.728000000    -0.192000000
H     0.402000000     0.772000000    -1.235000000
H    -0.242000000     1.696000000     0.198000000
H     0.965000000     0.385000000     0.349000000
C    -1.214000000    -0.562000000     1.514000000
H    -0.665000000    -0.093000000     2.327000000
C    -2.219000000    -1.457000000     1.872000000
H    -2.615000000    -1.545000000     2.881000000
C    -2.915000000    -2.188000000     0.874000000
C    -3.844000000    -3.306000000     1.295000000
O    -4.118000000    -3.389000000     2.495000000
O    -4.248000000    -4.260000000     0.584000000
