17
-98.81288
C     0.976000000    -2.535000000    -1.247000000
H     0.675000000    -3.396000000    -1.837000000
C     0.163000000    -1.410000000    -1.204000000
H    -0.725000000    -1.358000000    -1.828000000
C     0.576000000    -0.349000000    -0.402000000
C    -0.384000000     0.832000000    -0.274000000
H    -1.283000000     0.428000000     0.197000000
H     0.018000000     1.520000000     0.473000000
H    -0.640000000     1.370000000    -1.189000000
C     1.749000000    -0.475000000     0.318000000
H     2.159000000     0.307000000     0.953000000
C     2.618000000    -1.588000000     0.251000000
H     3.570000000    -1.696000000     0.764000000
C     2.238000000    -2.619000000    -0.600000000
C     3.099000000    -3.827000000    -0.694000000
O     4.102000000    -3.917000000     0.003000000
O     2.725000000    -4.734000000    -1.400000000
