17
-88.54648
C    -2.319000000    -2.028000000    -0.681000000
H    -3.209000000    -2.250000000    -1.264000000
C    -1.617000000    -0.843000000    -0.968000000
H    -2.001000000    -0.103000000    -1.665000000
C    -0.370000000    -0.595000000    -0.332000000
C     0.427000000     0.699000000    -0.570000000
H     1.492000000     0.550000000    -0.760000000
H    -0.018000000     1.348000000    -1.327000000
H     0.484000000     1.271000000     0.358000000
C     0.074000000    -1.557000000     0.524000000
H     0.945000000    -1.342000000     1.138000000
C    -0.608000000    -2.774000000     0.686000000
H    -0.184000000    -3.446000000     1.428000000
C    -1.847000000    -3.039000000     0.163000000
C    -2.505000000    -4.274000000     0.480000000
O    -2.289000000    -4.962000000     1.471000000
O    -3.475000000    -4.567000000    -0.182000000
