17
-93.88372
C    -1.676000000    -1.869000000    -0.071000000
H    -2.520000000    -2.306000000    -0.598000000
C    -1.205000000    -0.690000000    -0.504000000
H    -1.660000000    -0.233000000    -1.379000000
C    -0.077000000    -0.178000000     0.132000000
C     0.577000000     1.112000000    -0.424000000
H     1.594000000     0.928000000    -0.777000000
H    -0.053000000     1.518000000    -1.218000000
H     0.616000000     1.840000000     0.388000000
C     0.532000000    -0.768000000     1.257000000
H     1.337000000    -0.403000000     1.890000000
C    -0.108000000    -1.900000000     1.774000000
H     0.299000000    -2.355000000     2.673000000
C    -1.145000000    -2.482000000     1.053000000
C    -1.891000000    -3.622000000     1.689000000
O    -1.345000000    -4.278000000     2.574000000
O    -3.083000000    -3.669000000     1.517000000
