17
-99.43205
C    -1.820000000    -1.762000000    -0.563000000
H    -2.584000000    -2.005000000    -1.298000000
C    -0.935000000    -0.711000000    -0.903000000
H    -1.013000000    -0.203000000    -1.861000000
C     0.000000000    -0.227000000     0.016000000
C     0.958000000     0.927000000    -0.410000000
H     0.486000000     1.898000000    -0.575000000
H     1.676000000     1.043000000     0.406000000
H     1.512000000     0.696000000    -1.322000000
C     0.150000000    -0.899000000     1.210000000
H     0.926000000    -0.556000000     1.890000000
C    -0.647000000    -1.987000000     1.554000000
H    -0.400000000    -2.424000000     2.519000000
C    -1.692000000    -2.406000000     0.698000000
C    -2.672000000    -3.416000000     1.140000000
O    -2.469000000    -4.110000000     2.149000000
O    -3.626000000    -3.659000000     0.390000000
