17
-97.73534
C     0.831000000    -1.691000000    -1.366000000
H     0.540000000    -2.436000000    -2.102000000
C    -0.030000000    -0.605000000    -1.275000000
H    -0.906000000    -0.549000000    -1.915000000
C     0.217000000     0.433000000    -0.405000000
C    -0.818000000     1.455000000    -0.289000000
H    -1.828000000     1.154000000    -0.576000000
H    -0.937000000     1.894000000     0.703000000
H    -0.507000000     2.329000000    -0.864000000
C     1.218000000     0.215000000     0.536000000
H     1.281000000     0.899000000     1.379000000
C     2.090000000    -0.897000000     0.524000000
H     2.948000000    -0.926000000     1.190000000
C     1.908000000    -1.902000000    -0.488000000
C     2.819000000    -3.074000000    -0.536000000
O     3.917000000    -2.992000000     0.010000000
O     2.376000000    -4.124000000    -1.055000000
