17
-86.99687
C    -2.509000000    -1.314000000     0.533000000
H    -3.592000000    -1.226000000     0.548000000
C    -1.542000000    -0.286000000     0.196000000
H    -1.949000000     0.721000000     0.172000000
C    -0.216000000    -0.499000000    -0.097000000
C     0.767000000     0.669000000    -0.267000000
H     1.807000000     0.362000000    -0.136000000
H     0.590000000     0.889000000    -1.322000000
H     0.514000000     1.520000000     0.369000000
C     0.289000000    -1.782000000     0.016000000
H     1.343000000    -1.987000000    -0.154000000
C    -0.565000000    -2.828000000     0.353000000
H    -0.250000000    -3.868000000     0.315000000
C    -1.976000000    -2.621000000     0.555000000
C    -2.893000000    -3.787000000     0.728000000
O    -2.485000000    -4.880000000     1.021000000
O    -4.069000000    -3.610000000     0.714000000
