17
-95.67098
C    -2.193000000     0.005000000     0.877000000
H    -3.014000000     0.625000000     1.228000000
C    -1.116000000     0.702000000     0.399000000
H    -1.024000000     1.773000000     0.559000000
C     0.014000000     0.127000000    -0.098000000
C     1.175000000     0.922000000    -0.509000000
H     1.889000000     1.001000000     0.314000000
H     1.546000000     0.465000000    -1.429000000
H     0.920000000     1.962000000    -0.722000000
C     0.073000000    -1.276000000    -0.190000000
H     0.940000000    -1.813000000    -0.565000000
C    -1.006000000    -1.994000000     0.281000000
H    -0.960000000    -3.078000000     0.218000000
C    -2.183000000    -1.374000000     0.762000000
C    -3.383000000    -2.145000000     1.273000000
O    -3.383000000    -3.366000000     1.243000000
O    -4.280000000    -1.547000000     1.806000000
