17
-94.44360
C    -3.097000000    -0.374000000     1.298000000
H    -3.820000000     0.208000000     1.863000000
C    -1.978000000     0.314000000     0.767000000
H    -1.811000000     1.352000000     1.041000000
C    -1.123000000    -0.343000000    -0.061000000
C    -0.034000000     0.547000000    -0.555000000
H    -0.157000000     0.520000000    -1.640000000
H    -0.157000000     1.589000000    -0.255000000
H     1.000000000     0.237000000    -0.385000000
C    -1.207000000    -1.720000000    -0.254000000
H    -0.397000000    -2.236000000    -0.763000000
C    -2.228000000    -2.388000000     0.334000000
H    -2.263000000    -3.460000000     0.161000000
C    -3.239000000    -1.711000000     1.098000000
C    -4.355000000    -2.541000000     1.672000000
O    -4.283000000    -3.747000000     1.530000000
O    -5.260000000    -2.037000000     2.281000000
