17
-97.98306
C    -2.504000000    -0.485000000     1.101000000
H    -3.422000000    -0.028000000     1.463000000
C    -1.431000000     0.394000000     0.718000000
H    -1.368000000     1.476000000     0.803000000
C    -0.273000000    -0.191000000     0.156000000
C     0.820000000     0.653000000    -0.360000000
H     1.182000000     0.213000000    -1.292000000
H     0.396000000     1.657000000    -0.437000000
H     1.644000000     0.689000000     0.355000000
C    -0.211000000    -1.569000000    -0.043000000
H     0.559000000    -2.030000000    -0.656000000
C    -1.277000000    -2.382000000     0.316000000
H    -1.293000000    -3.419000000    -0.010000000
C    -2.414000000    -1.864000000     0.893000000
C    -3.584000000    -2.795000000     1.151000000
O    -3.464000000    -3.988000000     0.914000000
O    -4.589000000    -2.334000000     1.651000000
