17
-86.32393
C    -2.777000000    -0.654000000     0.022000000
H    -3.785000000    -0.255000000    -0.059000000
C    -1.707000000     0.210000000     0.090000000
H    -1.899000000     1.273000000     0.204000000
C    -0.410000000    -0.235000000    -0.001000000
C     0.761000000     0.706000000     0.151000000
H     1.337000000     0.541000000     1.064000000
H     1.376000000     0.664000000    -0.751000000
H     0.359000000     1.720000000     0.193000000
C    -0.178000000    -1.627000000    -0.009000000
H     0.824000000    -2.022000000     0.139000000
C    -1.277000000    -2.438000000    -0.153000000
H    -1.175000000    -3.520000000    -0.189000000
C    -2.583000000    -1.992000000    -0.099000000
C    -3.776000000    -2.965000000    -0.104000000
O    -3.595000000    -4.107000000     0.237000000
O    -4.872000000    -2.485000000     0.178000000
