17
-95.89430
C    -2.714000000    -0.408000000     0.418000000
H    -3.558000000     0.276000000     0.384000000
C    -1.429000000     0.162000000     0.247000000
H    -1.250000000     1.232000000     0.176000000
C    -0.311000000    -0.657000000     0.179000000
C     1.017000000     0.024000000    -0.069000000
H     0.796000000     1.088000000    -0.178000000
H     1.673000000    -0.022000000     0.802000000
H     1.460000000    -0.344000000    -0.997000000
C    -0.380000000    -1.989000000     0.390000000
H     0.534000000    -2.576000000     0.419000000
C    -1.637000000    -2.554000000     0.554000000
H    -1.800000000    -3.619000000     0.697000000
C    -2.798000000    -1.783000000     0.664000000
C    -4.083000000    -2.471000000     0.928000000
O    -4.092000000    -3.483000000     1.621000000
O    -5.110000000    -1.915000000     0.627000000
