17
-94.20111
C    -3.098000000     0.254000000     1.347000000
H    -3.506000000     1.019000000     2.003000000
C    -1.807000000     0.393000000     0.922000000
H    -1.163000000     1.187000000     1.291000000
C    -1.204000000    -0.601000000     0.137000000
C     0.270000000    -0.502000000    -0.243000000
H     0.792000000    -0.191000000     0.664000000
H     0.640000000    -1.428000000    -0.690000000
H     0.534000000     0.257000000    -0.983000000
C    -1.885000000    -1.712000000    -0.257000000
H    -1.483000000    -2.511000000    -0.875000000
C    -3.239000000    -1.865000000     0.149000000
H    -3.739000000    -2.765000000    -0.202000000
C    -3.805000000    -0.876000000     0.942000000
C    -5.220000000    -1.046000000     1.451000000
O    -5.891000000    -1.942000000     1.059000000
O    -5.626000000    -0.348000000     2.354000000
