17
-94.30899
C    -2.408000000     0.317000000     1.574000000
H    -2.694000000     0.937000000     2.420000000
C    -1.163000000     0.476000000     0.957000000
H    -0.522000000     1.284000000     1.302000000
C    -0.839000000    -0.321000000    -0.139000000
C     0.482000000    -0.252000000    -0.862000000
H     1.208000000     0.211000000    -0.191000000
H     0.808000000    -1.266000000    -1.102000000
H     0.395000000     0.279000000    -1.813000000
C    -1.735000000    -1.194000000    -0.674000000
H    -1.463000000    -1.750000000    -1.568000000
C    -2.964000000    -1.313000000    -0.086000000
H    -3.708000000    -1.998000000    -0.485000000
C    -3.321000000    -0.593000000     1.020000000
C    -4.723000000    -0.774000000     1.689000000
O    -5.433000000    -1.730000000     1.436000000
O    -5.024000000    -0.111000000     2.644000000
