17
-88.29124
C    -2.485000000     0.680000000     1.069000000
H    -2.953000000     1.513000000     1.587000000
C    -1.164000000     0.932000000     0.637000000
H    -0.678000000     1.902000000     0.691000000
C    -0.456000000    -0.021000000    -0.067000000
C     0.853000000     0.262000000    -0.738000000
H     1.337000000    -0.666000000    -1.050000000
H     0.732000000     0.930000000    -1.593000000
H     1.583000000     0.787000000    -0.118000000
C    -1.035000000    -1.300000000    -0.328000000
H    -0.483000000    -2.064000000    -0.869000000
C    -2.363000000    -1.527000000     0.170000000
H    -2.867000000    -2.435000000    -0.151000000
C    -3.086000000    -0.551000000     0.921000000
C    -4.548000000    -0.782000000     1.422000000
O    -5.173000000    -1.711000000     1.052000000
O    -4.906000000    -0.220000000     2.426000000
