17
-96.83866
C    -2.418000000     0.159000000     1.708000000
H    -3.014000000     0.646000000     2.476000000
C    -1.307000000     0.760000000     1.135000000
H    -1.045000000     1.740000000     1.526000000
C    -0.557000000     0.131000000     0.196000000
C     0.709000000     0.826000000    -0.307000000
H     0.940000000     0.385000000    -1.279000000
H     0.690000000     1.918000000    -0.340000000
H     1.490000000     0.642000000     0.434000000
C    -0.964000000    -1.164000000    -0.253000000
H    -0.378000000    -1.732000000    -0.972000000
C    -2.099000000    -1.778000000     0.265000000
H    -2.346000000    -2.807000000     0.017000000
C    -2.901000000    -1.046000000     1.241000000
C    -4.125000000    -1.704000000     1.789000000
O    -4.675000000    -2.675000000     1.203000000
O    -4.624000000    -1.317000000     2.817000000
