17
-85.03037
C    -2.140000000    -0.300000000     1.553000000
H    -2.751000000     0.069000000     2.373000000
C    -1.210000000     0.596000000     0.953000000
H    -1.036000000     1.598000000     1.336000000
C    -0.461000000     0.193000000    -0.166000000
C     0.427000000     1.084000000    -0.912000000
H     0.178000000     2.086000000    -0.554000000
H     1.482000000     1.034000000    -0.636000000
H     0.324000000     1.091000000    -1.999000000
C    -0.624000000    -1.066000000    -0.767000000
H    -0.036000000    -1.424000000    -1.607000000
C    -1.530000000    -1.933000000    -0.198000000
H    -1.694000000    -2.931000000    -0.597000000
C    -2.258000000    -1.649000000     0.985000000
C    -3.368000000    -2.633000000     1.477000000
O    -3.549000000    -3.678000000     0.944000000
O    -4.071000000    -2.355000000     2.396000000
