17
-92.20376
C    -2.815000000    -0.116000000     1.492000000
H    -3.324000000     0.390000000     2.308000000
C    -1.616000000     0.455000000     1.032000000
H    -1.248000000     1.341000000     1.544000000
C    -1.011000000    -0.031000000    -0.074000000
C     0.216000000     0.625000000    -0.539000000
H     0.735000000     1.233000000     0.205000000
H     0.995000000    -0.074000000    -0.851000000
H     0.032000000     1.241000000    -1.422000000
C    -1.539000000    -1.085000000    -0.758000000
H    -1.155000000    -1.401000000    -1.724000000
C    -2.656000000    -1.749000000    -0.246000000
H    -3.089000000    -2.537000000    -0.857000000
C    -3.318000000    -1.241000000     0.894000000
C    -4.581000000    -1.883000000     1.388000000
O    -5.031000000    -2.887000000     0.923000000
O    -5.170000000    -1.470000000     2.402000000
