17
-93.22925
C    -2.928000000    -0.538000000     1.642000000
H    -3.449000000     0.010000000     2.424000000
C    -1.648000000    -0.189000000     1.275000000
H    -1.111000000     0.561000000     1.851000000
C    -1.010000000    -0.766000000     0.189000000
C     0.372000000    -0.401000000    -0.232000000
H     0.999000000    -0.178000000     0.633000000
H     0.815000000    -1.115000000    -0.930000000
H     0.216000000     0.507000000    -0.819000000
C    -1.734000000    -1.738000000    -0.535000000
H    -1.330000000    -2.204000000    -1.431000000
C    -3.002000000    -2.139000000    -0.130000000
H    -3.366000000    -3.080000000    -0.535000000
C    -3.696000000    -1.525000000     0.903000000
C    -4.944000000    -1.968000000     1.571000000
O    -5.386000000    -3.053000000     1.212000000
O    -5.349000000    -1.399000000     2.535000000
