17
-89.50219
C    -2.649000000    -0.654000000     0.546000000
H    -3.619000000    -0.390000000     0.959000000
C    -1.673000000     0.277000000     0.249000000
H    -1.818000000     1.311000000     0.554000000
C    -0.478000000    -0.112000000    -0.313000000
C     0.690000000     0.903000000    -0.393000000
H     1.282000000     0.739000000     0.510000000
H     1.403000000     0.871000000    -1.219000000
H     0.411000000     1.956000000    -0.325000000
C    -0.298000000    -1.504000000    -0.634000000
H     0.612000000    -1.780000000    -1.162000000
C    -1.384000000    -2.399000000    -0.528000000
H    -1.463000000    -3.387000000    -0.975000000
C    -2.553000000    -1.976000000     0.077000000
C    -3.672000000    -2.937000000     0.296000000
O    -3.693000000    -4.054000000    -0.162000000
O    -4.626000000    -2.524000000     0.875000000
