17
-84.59196
C    -2.141000000    -0.303000000     0.390000000
H    -3.115000000     0.028000000     0.741000000
C    -1.188000000     0.621000000     0.162000000
H    -1.406000000     1.594000000     0.593000000
C     0.011000000     0.155000000    -0.327000000
C     1.097000000     1.126000000    -0.505000000
H     0.970000000     2.033000000    -1.099000000
H     1.540000000     1.331000000     0.472000000
H     1.887000000     0.594000000    -1.040000000
C     0.271000000    -1.168000000    -0.483000000
H     1.298000000    -1.508000000    -0.586000000
C    -0.789000000    -2.052000000    -0.429000000
H    -0.596000000    -3.110000000    -0.584000000
C    -2.018000000    -1.634000000     0.140000000
C    -3.193000000    -2.631000000     0.197000000
O    -3.015000000    -3.819000000    -0.030000000
O    -4.168000000    -2.221000000     0.765000000
