17
-95.44705
C    -2.521000000    -0.386000000     0.712000000
H    -3.434000000     0.189000000     0.837000000
C    -1.398000000     0.334000000     0.318000000
H    -1.457000000     1.419000000     0.294000000
C    -0.180000000    -0.314000000     0.034000000
C     1.026000000     0.525000000    -0.301000000
H     1.654000000     0.026000000    -1.041000000
H     0.708000000     1.482000000    -0.718000000
H     1.556000000     0.628000000     0.648000000
C    -0.215000000    -1.716000000     0.174000000
H     0.650000000    -2.349000000    -0.006000000
C    -1.378000000    -2.395000000     0.455000000
H    -1.320000000    -3.479000000     0.407000000
C    -2.585000000    -1.747000000     0.774000000
C    -3.782000000    -2.522000000     1.218000000
O    -3.664000000    -3.722000000     1.322000000
O    -4.833000000    -1.979000000     1.357000000
