17
-92.87204
C    -2.837000000    -0.580000000     0.392000000
H    -3.856000000    -0.357000000     0.699000000
C    -1.752000000     0.315000000     0.504000000
H    -1.871000000     1.312000000     0.921000000
C    -0.535000000    -0.132000000    -0.048000000
C     0.686000000     0.731000000    -0.138000000
H     1.377000000     0.353000000     0.618000000
H     1.163000000     0.663000000    -1.118000000
H     0.393000000     1.763000000     0.065000000
C    -0.336000000    -1.428000000    -0.474000000
H     0.607000000    -1.774000000    -0.890000000
C    -1.357000000    -2.404000000    -0.256000000
H    -1.220000000    -3.472000000    -0.409000000
C    -2.592000000    -1.976000000     0.045000000
C    -3.746000000    -2.902000000     0.135000000
O    -3.530000000    -4.007000000    -0.337000000
O    -4.820000000    -2.637000000     0.604000000
