17
-89.07350
C     2.440000000    -2.023000000     1.613000000
H     2.889000000    -2.998000000     1.786000000
C     1.433000000    -1.832000000     0.726000000
H     1.082000000    -2.643000000     0.092000000
C     0.830000000    -0.597000000     0.634000000
C    -0.317000000    -0.548000000    -0.304000000
H     0.160000000    -0.494000000    -1.285000000
H    -1.014000000    -1.373000000    -0.150000000
H    -0.865000000     0.387000000    -0.169000000
C     1.182000000     0.536000000     1.439000000
H     0.757000000     1.536000000     1.450000000
C     2.302000000     0.317000000     2.274000000
H     2.640000000     1.173000000     2.853000000
C     2.867000000    -0.929000000     2.414000000
C     3.966000000    -1.219000000     3.492000000
O     4.259000000    -0.462000000     4.356000000
O     4.516000000    -2.317000000     3.544000000
