17
-86.96637
C    -2.704000000    -0.708000000     0.548000000
H    -3.613000000    -0.243000000     0.920000000
C    -1.790000000     0.199000000     0.266000000
H    -1.985000000     1.251000000     0.458000000
C    -0.506000000    -0.161000000    -0.269000000
C     0.467000000     0.990000000    -0.570000000
H     0.570000000     1.194000000    -1.637000000
H     0.234000000     1.936000000    -0.077000000
H     1.397000000     0.830000000    -0.019000000
C    -0.240000000    -1.469000000    -0.535000000
H     0.693000000    -1.786000000    -0.995000000
C    -1.263000000    -2.381000000    -0.244000000
H    -1.148000000    -3.420000000    -0.543000000
C    -2.541000000    -2.011000000     0.257000000
C    -3.758000000    -2.938000000     0.335000000
O    -3.629000000    -4.102000000     0.145000000
O    -4.873000000    -2.467000000     0.659000000
