17
-91.14535
C    -2.507000000    -0.350000000     0.357000000
H    -3.454000000     0.166000000     0.496000000
C    -1.335000000     0.420000000     0.165000000
H    -1.368000000     1.505000000     0.116000000
C    -0.082000000    -0.162000000     0.034000000
C     1.157000000     0.672000000    -0.248000000
H     1.901000000     0.263000000    -0.935000000
H     0.874000000     1.636000000    -0.677000000
H     1.761000000     0.835000000     0.647000000
C    -0.022000000    -1.572000000     0.075000000
H     0.815000000    -2.264000000     0.052000000
C    -1.228000000    -2.319000000     0.283000000
H    -1.134000000    -3.402000000     0.240000000
C    -2.494000000    -1.696000000     0.528000000
C    -3.790000000    -2.515000000     0.848000000
O    -3.742000000    -3.758000000     0.969000000
O    -4.711000000    -1.908000000     1.274000000
