17
-87.03470
C    -2.016000000    -0.527000000     0.836000000
H    -2.903000000    -0.202000000     1.375000000
C    -1.121000000     0.462000000     0.476000000
H    -1.430000000     1.475000000     0.723000000
C     0.068000000     0.139000000    -0.103000000
C     1.116000000     1.150000000    -0.464000000
H     1.050000000     1.978000000     0.244000000
H     2.075000000     0.635000000    -0.379000000
H     0.915000000     1.393000000    -1.510000000
C     0.391000000    -1.250000000    -0.284000000
H     1.217000000    -1.564000000    -0.918000000
C    -0.571000000    -2.226000000    -0.010000000
H    -0.427000000    -3.279000000    -0.238000000
C    -1.759000000    -1.879000000     0.645000000
C    -2.803000000    -2.880000000     1.056000000
O    -2.464000000    -4.007000000     0.913000000
O    -3.806000000    -2.640000000     1.644000000
