17
-95.40916
C    -2.710000000    -1.469000000    -0.313000000
H    -3.735000000    -1.331000000    -0.650000000
C    -1.853000000    -0.392000000    -0.432000000
H    -2.218000000     0.522000000    -0.894000000
C    -0.497000000    -0.557000000    -0.173000000
C     0.459000000     0.503000000    -0.510000000
H     1.106000000     0.681000000     0.351000000
H     1.110000000     0.176000000    -1.324000000
H    -0.039000000     1.440000000    -0.769000000
C    -0.010000000    -1.749000000     0.345000000
H     1.032000000    -1.868000000     0.630000000
C    -0.900000000    -2.828000000     0.475000000
H    -0.510000000    -3.741000000     0.918000000
C    -2.281000000    -2.699000000     0.187000000
C    -3.183000000    -3.929000000     0.226000000
O    -2.802000000    -4.924000000     0.805000000
O    -4.342000000    -3.745000000     0.007000000
