17
-91.94433
C    -2.462000000    -2.032000000    -1.084000000
H    -3.247000000    -2.177000000    -1.822000000
C    -1.623000000    -0.866000000    -1.161000000
H    -1.788000000    -0.276000000    -2.059000000
C    -0.541000000    -0.692000000    -0.330000000
C     0.319000000     0.518000000    -0.463000000
H     0.093000000     1.219000000     0.342000000
H     1.359000000     0.237000000    -0.285000000
H     0.290000000     1.034000000    -1.425000000
C    -0.262000000    -1.634000000     0.611000000
H     0.608000000    -1.464000000     1.240000000
C    -1.100000000    -2.787000000     0.706000000
H    -0.857000000    -3.632000000     1.345000000
C    -2.162000000    -3.076000000    -0.228000000
C    -2.992000000    -4.284000000    -0.111000000
O    -2.908000000    -5.008000000     0.849000000
O    -3.907000000    -4.524000000    -0.937000000
