17
-89.26832
C    -1.673000000    -1.879000000    -1.176000000
H    -2.374000000    -2.161000000    -1.958000000
C    -0.879000000    -0.723000000    -1.365000000
H    -1.022000000    -0.228000000    -2.322000000
C     0.097000000    -0.331000000    -0.426000000
C     1.124000000     0.790000000    -0.776000000
H     1.031000000     1.221000000    -1.775000000
H     0.996000000     1.639000000    -0.101000000
H     2.152000000     0.426000000    -0.729000000
C     0.208000000    -1.149000000     0.740000000
H     0.863000000    -0.891000000     1.568000000
C    -0.727000000    -2.218000000     0.949000000
H    -0.701000000    -2.742000000     1.901000000
C    -1.604000000    -2.637000000    -0.019000000
C    -2.588000000    -3.775000000     0.189000000
O    -2.491000000    -4.399000000     1.201000000
O    -3.245000000    -4.298000000    -0.709000000
