17
-90.88122
C    -0.916000000    -2.409000000    -0.803000000
H    -1.377000000    -2.972000000    -1.611000000
C    -0.383000000    -1.125000000    -0.872000000
H    -0.509000000    -0.639000000    -1.836000000
C     0.074000000    -0.450000000     0.240000000
C     0.676000000     0.987000000     0.148000000
H    -0.136000000     1.696000000     0.319000000
H     1.527000000     1.080000000     0.826000000
H     1.204000000     1.077000000    -0.804000000
C     0.043000000    -1.055000000     1.419000000
H     0.325000000    -0.529000000     2.328000000
C    -0.454000000    -2.336000000     1.571000000
H    -0.412000000    -2.772000000     2.566000000
C    -1.059000000    -3.003000000     0.448000000
C    -1.893000000    -4.239000000     0.650000000
O    -2.016000000    -4.638000000     1.771000000
O    -2.485000000    -4.783000000    -0.288000000
