17
-90.85824
C    -0.681000000    -2.328000000    -0.804000000
H    -1.065000000    -2.690000000    -1.754000000
C    -0.212000000    -1.039000000    -0.777000000
H    -0.389000000    -0.451000000    -1.674000000
C     0.461000000    -0.521000000     0.250000000
C     1.175000000     0.855000000     0.194000000
H     0.508000000     1.564000000    -0.300000000
H     1.300000000     1.195000000     1.225000000
H     2.160000000     0.793000000    -0.273000000
C     0.338000000    -1.135000000     1.484000000
H     0.808000000    -0.661000000     2.342000000
C    -0.161000000    -2.414000000     1.558000000
H    -0.215000000    -2.846000000     2.555000000
C    -0.773000000    -2.999000000     0.406000000
C    -1.535000000    -4.325000000     0.409000000
O    -1.911000000    -4.813000000     1.510000000
O    -1.965000000    -4.697000000    -0.654000000
