17
-91.17956
C    -1.719000000    -1.834000000    -0.359000000
H    -2.447000000    -2.258000000    -1.045000000
C    -0.722000000    -0.928000000    -0.850000000
H    -0.642000000    -0.736000000    -1.917000000
C     0.083000000    -0.199000000     0.002000000
C     1.087000000     0.808000000    -0.529000000
H     1.836000000     0.281000000    -1.124000000
H     0.669000000     1.565000000    -1.195000000
H     1.559000000     1.367000000     0.281000000
C    -0.083000000    -0.416000000     1.336000000
H     0.496000000     0.098000000     2.099000000
C    -1.029000000    -1.306000000     1.829000000
H    -1.010000000    -1.598000000     2.876000000
C    -1.894000000    -1.997000000     0.973000000
C    -2.880000000    -3.027000000     1.530000000
O    -2.830000000    -3.348000000     2.694000000
O    -3.679000000    -3.521000000     0.831000000
