17
-97.70851
C    -2.206000000    -1.748000000    -1.055000000
H    -3.019000000    -1.677000000    -1.773000000
C    -1.202000000    -0.782000000    -1.112000000
H    -1.067000000    -0.132000000    -1.973000000
C    -0.153000000    -0.765000000    -0.196000000
C     0.934000000     0.278000000    -0.337000000
H     1.337000000     0.554000000     0.640000000
H     1.708000000    -0.186000000    -0.951000000
H     0.572000000     1.243000000    -0.698000000
C    -0.252000000    -1.627000000     0.933000000
H     0.461000000    -1.600000000     1.753000000
C    -1.274000000    -2.639000000     0.993000000
H    -1.343000000    -3.333000000     1.828000000
C    -2.316000000    -2.602000000     0.061000000
C    -3.469000000    -3.597000000     0.151000000
O    -3.467000000    -4.362000000     1.122000000
O    -4.481000000    -3.513000000    -0.539000000
