17
-89.20682
C    -1.868000000    -2.045000000    -0.344000000
H    -2.584000000    -2.418000000    -1.071000000
C    -1.064000000    -0.916000000    -0.607000000
H    -1.056000000    -0.567000000    -1.636000000
C    -0.230000000    -0.379000000     0.392000000
C     0.791000000     0.662000000    -0.093000000
H     0.453000000     1.693000000    -0.218000000
H     1.697000000     0.570000000     0.510000000
H     1.163000000     0.266000000    -1.041000000
C    -0.265000000    -0.952000000     1.652000000
H     0.308000000    -0.522000000     2.470000000
C    -1.052000000    -2.066000000     1.929000000
H    -0.972000000    -2.602000000     2.872000000
C    -1.824000000    -2.675000000     0.900000000
C    -2.573000000    -3.962000000     1.181000000
O    -2.304000000    -4.524000000     2.179000000
O    -3.426000000    -4.420000000     0.475000000
