17
-93.37132
C    -1.834000000    -1.231000000    -1.419000000
H    -2.412000000    -1.233000000    -2.340000000
C    -0.857000000    -0.285000000    -1.258000000
H    -0.838000000     0.516000000    -1.993000000
C    -0.006000000    -0.303000000    -0.124000000
C     1.106000000     0.621000000    -0.053000000
H     0.672000000     1.563000000     0.289000000
H     1.900000000     0.307000000     0.628000000
H     1.580000000     0.782000000    -1.023000000
C    -0.294000000    -1.163000000     0.930000000
H     0.313000000    -1.044000000     1.824000000
C    -1.253000000    -2.123000000     0.765000000
H    -1.327000000    -2.900000000     1.521000000
C    -1.969000000    -2.243000000    -0.418000000
C    -2.911000000    -3.442000000    -0.523000000
O    -2.888000000    -4.327000000     0.346000000
O    -3.743000000    -3.381000000    -1.344000000
