17
-94.93484
C    -1.197000000    -2.607000000    -1.314000000
H    -1.248000000    -3.184000000    -2.234000000
C    -0.504000000    -1.390000000    -1.296000000
H    -0.111000000    -1.026000000    -2.242000000
C    -0.259000000    -0.670000000    -0.154000000
C     0.632000000     0.540000000    -0.203000000
H     1.562000000     0.337000000     0.332000000
H     0.856000000     0.813000000    -1.236000000
H     0.038000000     1.298000000     0.312000000
C    -0.682000000    -1.202000000     1.075000000
H    -0.465000000    -0.739000000     2.034000000
C    -1.416000000    -2.403000000     1.047000000
H    -1.859000000    -2.735000000     1.982000000
C    -1.740000000    -3.117000000    -0.124000000
C    -2.705000000    -4.286000000    -0.077000000
O    -3.470000000    -4.358000000     0.888000000
O    -2.927000000    -4.857000000    -1.089000000
