17
-97.15521
C    -1.318000000    -2.005000000    -1.415000000
H    -2.024000000    -2.015000000    -2.242000000
C    -0.383000000    -0.927000000    -1.362000000
H    -0.254000000    -0.147000000    -2.108000000
C     0.299000000    -0.695000000    -0.179000000
C     1.223000000     0.532000000    -0.152000000
H     0.602000000     1.412000000    -0.331000000
H     1.774000000     0.615000000     0.787000000
H     2.019000000     0.502000000    -0.900000000
C     0.105000000    -1.545000000     0.899000000
H     0.546000000    -1.398000000     1.882000000
C    -0.771000000    -2.672000000     0.801000000
H    -0.966000000    -3.310000000     1.659000000
C    -1.540000000    -2.848000000    -0.354000000
C    -2.675000000    -3.882000000    -0.444000000
O    -3.090000000    -4.458000000     0.527000000
O    -3.187000000    -4.097000000    -1.547000000
