17
-83.40356
C    -1.151000000    -1.701000000    -1.576000000
H    -1.717000000    -2.022000000    -2.447000000
C    -0.707000000    -0.410000000    -1.464000000
H    -1.082000000     0.342000000    -2.154000000
C     0.019000000    -0.046000000    -0.335000000
C     0.326000000     1.397000000     0.015000000
H     0.939000000     1.881000000    -0.749000000
H    -0.550000000     1.917000000     0.410000000
H     1.004000000     1.379000000     0.871000000
C     0.419000000    -1.012000000     0.576000000
H     0.821000000    -0.666000000     1.525000000
C    -0.007000000    -2.306000000     0.509000000
H     0.101000000    -3.017000000     1.324000000
C    -0.823000000    -2.663000000    -0.601000000
C    -1.506000000    -4.013000000    -0.536000000
O    -1.179000000    -4.924000000     0.172000000
O    -2.410000000    -4.284000000    -1.274000000
