17
-94.16740
C    -0.974000000    -3.328000000    -1.528000000
H    -1.439000000    -3.804000000    -2.388000000
C    -0.898000000    -1.941000000    -1.505000000
H    -1.392000000    -1.391000000    -2.302000000
C    -0.429000000    -1.232000000    -0.377000000
C    -0.441000000     0.216000000    -0.144000000
H     0.474000000     0.498000000     0.381000000
H    -0.282000000     0.616000000    -1.147000000
H    -1.301000000     0.686000000     0.338000000
C    -0.019000000    -2.044000000     0.752000000
H     0.377000000    -1.650000000     1.685000000
C    -0.067000000    -3.444000000     0.728000000
H     0.256000000    -4.044000000     1.575000000
C    -0.548000000    -4.096000000    -0.448000000
C    -0.829000000    -5.529000000    -0.448000000
O    -0.387000000    -6.215000000     0.452000000
O    -1.631000000    -6.007000000    -1.272000000
