17
-86.07287
C    -1.976000000    -4.856000000    -0.389000000
H    -2.343000000    -5.531000000    -1.159000000
C    -1.899000000    -3.489000000    -0.727000000
H    -2.402000000    -2.956000000    -1.530000000
C    -1.134000000    -2.642000000     0.059000000
C    -1.026000000    -1.192000000    -0.306000000
H    -0.729000000    -0.960000000    -1.330000000
H    -1.996000000    -0.699000000    -0.215000000
H    -0.388000000    -0.770000000     0.474000000
C    -0.661000000    -3.086000000     1.262000000
H    -0.051000000    -2.489000000     1.936000000
C    -0.905000000    -4.399000000     1.697000000
H    -0.471000000    -4.821000000     2.600000000
C    -1.531000000    -5.267000000     0.803000000
C    -1.627000000    -6.720000000     1.087000000
O    -1.122000000    -7.130000000     2.096000000
O    -2.226000000    -7.457000000     0.377000000
