17
-98.16337
C    -1.292000000    -1.819000000    -1.242000000
H    -1.891000000    -1.967000000    -2.136000000
C    -0.497000000    -0.641000000    -1.177000000
H    -0.597000000     0.068000000    -1.995000000
C     0.283000000    -0.376000000    -0.047000000
C     1.018000000     0.897000000     0.012000000
H     0.445000000     1.778000000    -0.287000000
H     1.435000000     1.126000000     0.994000000
H     1.761000000     0.689000000    -0.761000000
C     0.308000000    -1.344000000     0.972000000
H     0.909000000    -1.126000000     1.851000000
C    -0.378000000    -2.521000000     0.859000000
H    -0.266000000    -3.228000000     1.677000000
C    -1.226000000    -2.803000000    -0.238000000
C    -2.014000000    -4.054000000    -0.229000000
O    -1.763000000    -4.911000000     0.593000000
O    -2.982000000    -4.133000000    -0.965000000
