17
-90.09211
C    -3.084000000    -2.296000000    -0.245000000
H    -4.135000000    -2.029000000    -0.315000000
C    -2.151000000    -1.268000000    -0.135000000
H    -2.586000000    -0.308000000     0.130000000
C    -0.826000000    -1.387000000    -0.355000000
C     0.132000000    -0.238000000    -0.163000000
H    -0.374000000     0.713000000    -0.343000000
H     0.396000000    -0.141000000     0.892000000
H     1.092000000    -0.434000000    -0.645000000
C    -0.382000000    -2.658000000    -0.693000000
H     0.659000000    -2.883000000    -0.914000000
C    -1.217000000    -3.729000000    -0.809000000
H    -0.824000000    -4.666000000    -1.196000000
C    -2.599000000    -3.610000000    -0.585000000
C    -3.500000000    -4.783000000    -0.925000000
O    -3.083000000    -5.850000000    -0.680000000
O    -4.622000000    -4.557000000    -1.345000000
