17
-95.86361
C    -2.484000000    -0.889000000     0.335000000
H    -3.483000000    -0.552000000     0.596000000
C    -1.490000000     0.130000000     0.430000000
H    -1.731000000     1.180000000     0.574000000
C    -0.180000000    -0.293000000     0.150000000
C     0.918000000     0.754000000     0.230000000
H     1.693000000     0.552000000    -0.513000000
H     0.556000000     1.746000000    -0.046000000
H     1.332000000     0.802000000     1.239000000
C     0.149000000    -1.590000000    -0.078000000
H     1.197000000    -1.787000000    -0.285000000
C    -0.884000000    -2.544000000    -0.209000000
H    -0.680000000    -3.588000000    -0.431000000
C    -2.246000000    -2.198000000    -0.096000000
C    -3.368000000    -3.236000000    -0.123000000
O    -3.056000000    -4.409000000    -0.381000000
O    -4.581000000    -2.931000000    -0.205000000
