17
-93.87970
C     0.944000000    -1.786000000    -1.219000000
H     0.837000000    -2.479000000    -2.049000000
C     0.241000000    -0.592000000    -1.211000000
H    -0.433000000    -0.265000000    -1.999000000
C     0.326000000     0.284000000    -0.070000000
C    -0.549000000     1.525000000    -0.045000000
H    -0.552000000     1.990000000    -1.033000000
H    -1.589000000     1.234000000     0.118000000
H    -0.332000000     2.228000000     0.761000000
C     1.207000000    -0.070000000     0.936000000
H     1.299000000     0.493000000     1.862000000
C     1.997000000    -1.218000000     0.903000000
H     2.740000000    -1.379000000     1.680000000
C     1.782000000    -2.121000000    -0.132000000
C     2.627000000    -3.407000000    -0.049000000
O     3.520000000    -3.595000000     0.798000000
O     2.622000000    -4.186000000    -0.960000000
