17
-98.05872
C    -2.088000000    -0.914000000     1.161000000
H    -3.004000000    -0.904000000     1.746000000
C    -1.409000000     0.246000000     0.751000000
H    -1.786000000     1.226000000     1.031000000
C    -0.275000000     0.176000000     0.046000000
C     0.582000000     1.376000000    -0.361000000
H    -0.054000000     2.046000000    -0.943000000
H     0.908000000     1.989000000     0.483000000
H     1.448000000     1.136000000    -0.982000000
C     0.248000000    -1.105000000    -0.242000000
H     1.123000000    -1.283000000    -0.862000000
C    -0.367000000    -2.258000000     0.213000000
H    -0.110000000    -3.264000000    -0.109000000
C    -1.613000000    -2.165000000     0.832000000
C    -2.422000000    -3.422000000     1.007000000
O    -1.968000000    -4.552000000     0.718000000
O    -3.508000000    -3.293000000     1.579000000
