17
-95.69785
C    -1.964000000    -0.898000000     1.769000000
H    -2.779000000    -0.731000000     2.469000000
C    -1.332000000     0.158000000     1.151000000
H    -1.699000000     1.181000000     1.187000000
C    -0.250000000    -0.093000000     0.322000000
C     0.296000000     0.989000000    -0.541000000
H    -0.272000000     1.058000000    -1.471000000
H     0.323000000     1.960000000    -0.042000000
H     1.317000000     0.789000000    -0.872000000
C     0.191000000    -1.407000000     0.147000000
H     0.948000000    -1.602000000    -0.607000000
C    -0.454000000    -2.498000000     0.757000000
H    -0.130000000    -3.528000000     0.633000000
C    -1.583000000    -2.229000000     1.497000000
C    -2.425000000    -3.371000000     2.078000000
O    -1.917000000    -4.433000000     2.214000000
O    -3.625000000    -3.259000000     2.234000000
