17
-97.43751
C    -2.074000000    -0.657000000     1.337000000
H    -2.997000000    -0.433000000     1.866000000
C    -1.197000000     0.356000000     0.911000000
H    -1.459000000     1.368000000     1.210000000
C    -0.083000000     0.026000000     0.138000000
C     0.847000000     1.095000000    -0.380000000
H     1.879000000     0.753000000    -0.493000000
H     0.564000000     1.201000000    -1.429000000
H     0.828000000     2.020000000     0.199000000
C     0.174000000    -1.273000000    -0.257000000
H     1.040000000    -1.432000000    -0.895000000
C    -0.661000000    -2.326000000     0.227000000
H    -0.355000000    -3.350000000     0.026000000
C    -1.857000000    -1.987000000     0.994000000
C    -2.866000000    -3.094000000     1.204000000
O    -2.716000000    -4.128000000     0.586000000
O    -3.744000000    -2.907000000     2.005000000
