17
-97.16495
C    -1.991000000    -0.110000000     1.964000000
H    -2.768000000     0.399000000     2.529000000
C    -1.205000000     0.663000000     1.119000000
H    -1.431000000     1.714000000     0.956000000
C    -0.231000000     0.079000000     0.351000000
C     0.504000000     0.963000000    -0.643000000
H     1.157000000     0.282000000    -1.193000000
H    -0.213000000     1.407000000    -1.338000000
H     1.010000000     1.750000000    -0.080000000
C     0.049000000    -1.253000000     0.464000000
H     0.832000000    -1.706000000    -0.139000000
C    -0.713000000    -2.046000000     1.331000000
H    -0.447000000    -3.089000000     1.482000000
C    -1.740000000    -1.494000000     2.083000000
C    -2.525000000    -2.313000000     3.045000000
O    -2.258000000    -3.482000000     3.231000000
O    -3.492000000    -1.838000000     3.579000000
