17
-96.98067
C    -1.603000000    -0.691000000     1.619000000
H    -2.493000000    -0.352000000     2.143000000
C    -0.909000000     0.235000000     0.804000000
H    -1.385000000     1.206000000     0.692000000
C     0.265000000    -0.077000000     0.182000000
C     1.039000000     0.826000000    -0.765000000
H     1.627000000     0.188000000    -1.429000000
H     0.272000000     1.244000000    -1.419000000
H     1.569000000     1.633000000    -0.254000000
C     0.720000000    -1.361000000     0.265000000
H     1.601000000    -1.710000000    -0.267000000
C     0.134000000    -2.307000000     1.155000000
H     0.564000000    -3.294000000     1.313000000
C    -1.104000000    -1.988000000     1.785000000
C    -1.792000000    -2.947000000     2.728000000
O    -1.175000000    -3.924000000     3.089000000
O    -2.901000000    -2.691000000     3.164000000
