17
-91.65066
C    -1.836000000    -0.489000000     2.185000000
H    -2.641000000    -0.114000000     2.811000000
C    -1.306000000     0.315000000     1.160000000
H    -1.600000000     1.342000000     0.957000000
C    -0.454000000    -0.301000000     0.201000000
C     0.146000000     0.546000000    -0.932000000
H     1.196000000     0.317000000    -1.122000000
H    -0.531000000     0.393000000    -1.776000000
H     0.030000000     1.611000000    -0.720000000
C     0.010000000    -1.579000000     0.398000000
H     0.658000000    -2.038000000    -0.344000000
C    -0.422000000    -2.256000000     1.545000000
H    -0.127000000    -3.299000000     1.629000000
C    -1.371000000    -1.794000000     2.444000000
C    -1.850000000    -2.737000000     3.525000000
O    -1.273000000    -3.778000000     3.823000000
O    -2.954000000    -2.608000000     4.000000000
