17
-91.88116
C     0.761000000    -2.616000000    -0.648000000
H     0.469000000    -3.431000000    -1.305000000
C    -0.022000000    -1.448000000    -0.679000000
H    -0.835000000    -1.421000000    -1.400000000
C     0.145000000    -0.358000000     0.195000000
C    -0.814000000     0.825000000     0.249000000
H    -1.805000000     0.417000000     0.458000000
H    -0.570000000     1.562000000     1.016000000
H    -0.909000000     1.370000000    -0.693000000
C     1.231000000    -0.421000000     1.067000000
H     1.331000000     0.333000000     1.844000000
C     2.166000000    -1.477000000     0.937000000
H     3.083000000    -1.384000000     1.514000000
C     1.946000000    -2.595000000     0.136000000
C     2.837000000    -3.794000000     0.004000000
O     3.444000000    -4.001000000     1.101000000
O     2.707000000    -4.700000000    -0.768000000
