17
-94.81495
C    -2.073000000     0.446000000     2.053000000
H    -2.892000000     1.062000000     2.417000000
C    -1.257000000     1.046000000     1.081000000
H    -1.405000000     2.069000000     0.745000000
C    -0.216000000     0.260000000     0.532000000
C     0.857000000     0.840000000    -0.341000000
H     0.404000000     1.643000000    -0.927000000
H     1.530000000     1.353000000     0.349000000
H     1.466000000     0.179000000    -0.961000000
C     0.026000000    -1.093000000     0.951000000
H     0.817000000    -1.727000000     0.559000000
C    -0.739000000    -1.614000000     2.005000000
H    -0.548000000    -2.647000000     2.284000000
C    -1.859000000    -0.880000000     2.550000000
C    -2.694000000    -1.424000000     3.747000000
O    -2.404000000    -2.554000000     4.146000000
O    -3.568000000    -0.807000000     4.296000000
