17
-91.22219
C    -2.051000000     0.234000000     1.766000000
H    -2.808000000     0.937000000     2.104000000
C    -1.098000000     0.729000000     0.878000000
H    -1.187000000     1.738000000     0.482000000
C    -0.108000000    -0.089000000     0.366000000
C     0.641000000     0.349000000    -0.823000000
H    -0.083000000     0.129000000    -1.610000000
H     0.797000000     1.425000000    -0.921000000
H     1.613000000    -0.110000000    -1.018000000
C    -0.002000000    -1.358000000     0.893000000
H     0.798000000    -2.054000000     0.659000000
C    -0.985000000    -1.847000000     1.812000000
H    -0.940000000    -2.813000000     2.307000000
C    -1.988000000    -1.044000000     2.283000000
C    -3.065000000    -1.521000000     3.123000000
O    -2.878000000    -2.538000000     3.849000000
O    -4.135000000    -1.018000000     3.028000000
