17
-92.59767
C    -2.093000000    -1.492000000     1.471000000
H    -2.825000000    -1.416000000     2.271000000
C    -1.384000000    -0.348000000     1.130000000
H    -1.602000000     0.588000000     1.638000000
C    -0.257000000    -0.430000000     0.341000000
C     0.718000000     0.718000000     0.209000000
H     1.731000000     0.400000000     0.464000000
H     0.665000000     1.139000000    -0.797000000
H     0.371000000     1.478000000     0.912000000
C    -0.048000000    -1.576000000    -0.358000000
H     0.684000000    -1.538000000    -1.161000000
C    -0.741000000    -2.747000000    -0.121000000
H    -0.580000000    -3.610000000    -0.762000000
C    -1.706000000    -2.713000000     0.870000000
C    -2.432000000    -4.015000000     1.203000000
O    -2.233000000    -5.058000000     0.634000000
O    -3.358000000    -3.950000000     1.981000000
