17
-91.42765
C     2.849000000    -0.954000000     0.967000000
H     3.604000000    -1.641000000     0.594000000
C     1.775000000    -0.840000000     0.108000000
H     1.757000000    -1.399000000    -0.824000000
C     0.808000000     0.165000000     0.326000000
C    -0.406000000     0.288000000    -0.529000000
H    -0.290000000     0.337000000    -1.614000000
H    -1.084000000    -0.534000000    -0.292000000
H    -0.852000000     1.270000000    -0.353000000
C     0.832000000     0.926000000     1.461000000
H    -0.002000000     1.560000000     1.750000000
C     1.830000000     0.747000000     2.362000000
H     1.951000000     1.393000000     3.228000000
C     2.857000000    -0.165000000     2.114000000
C     3.979000000    -0.445000000     3.092000000
O     3.999000000     0.320000000     4.068000000
O     4.553000000    -1.533000000     3.173000000
