17
-94.86948
C    -1.219000000    -2.374000000     1.240000000
H    -1.906000000    -2.685000000     2.022000000
C    -0.790000000    -1.072000000     1.229000000
H    -1.143000000    -0.308000000     1.917000000
C     0.150000000    -0.741000000     0.226000000
C     0.591000000     0.673000000    -0.032000000
H     1.506000000     0.859000000     0.535000000
H     0.872000000     0.875000000    -1.068000000
H    -0.212000000     1.358000000     0.246000000
C     0.481000000    -1.671000000    -0.768000000
H     1.208000000    -1.468000000    -1.550000000
C     0.035000000    -2.967000000    -0.719000000
H     0.304000000    -3.699000000    -1.477000000
C    -0.798000000    -3.399000000     0.360000000
C    -1.379000000    -4.774000000     0.561000000
O    -1.496000000    -5.588000000    -0.325000000
O    -1.877000000    -5.034000000     1.644000000
