17
-98.20855
C    -2.408000000    -0.958000000     0.297000000
H    -3.440000000    -0.757000000     0.572000000
C    -1.527000000     0.149000000     0.191000000
H    -1.893000000     1.165000000     0.311000000
C    -0.168000000    -0.089000000    -0.057000000
C     0.830000000     1.007000000    -0.261000000
H     0.748000000     1.752000000     0.533000000
H     1.840000000     0.601000000    -0.177000000
H     0.567000000     1.568000000    -1.160000000
C     0.310000000    -1.402000000    -0.114000000
H     1.387000000    -1.551000000    -0.109000000
C    -0.542000000    -2.479000000     0.021000000
H    -0.159000000    -3.496000000     0.041000000
C    -1.917000000    -2.276000000     0.169000000
C    -2.834000000    -3.448000000     0.516000000
O    -2.458000000    -4.510000000     0.139000000
O    -3.937000000    -3.226000000     0.973000000
