17
-94.88467
C    -2.308000000    -0.772000000     0.483000000
H    -3.351000000    -0.496000000     0.613000000
C    -1.349000000     0.227000000     0.178000000
H    -1.631000000     1.273000000     0.090000000
C    -0.018000000    -0.092000000    -0.089000000
C     1.043000000     0.922000000    -0.436000000
H     1.084000000     1.720000000     0.308000000
H     2.025000000     0.467000000    -0.585000000
H     0.752000000     1.411000000    -1.368000000
C     0.341000000    -1.400000000    -0.029000000
H     1.373000000    -1.724000000    -0.137000000
C    -0.602000000    -2.405000000     0.225000000
H    -0.242000000    -3.429000000     0.149000000
C    -1.954000000    -2.100000000     0.509000000
C    -2.918000000    -3.176000000     1.026000000
O    -2.869000000    -4.359000000     0.715000000
O    -3.819000000    -2.799000000     1.699000000
