17
-91.90075
C    -2.183000000    -0.582000000     0.510000000
H    -3.187000000    -0.308000000     0.824000000
C    -1.300000000     0.466000000     0.301000000
H    -1.645000000     1.494000000     0.367000000
C     0.030000000     0.169000000    -0.113000000
C     1.111000000     1.210000000    -0.520000000
H     0.669000000     2.180000000    -0.279000000
H     2.056000000     1.128000000     0.021000000
H     1.451000000     1.020000000    -1.540000000
C     0.439000000    -1.136000000    -0.133000000
H     1.451000000    -1.340000000    -0.473000000
C    -0.472000000    -2.203000000     0.111000000
H    -0.144000000    -3.238000000     0.159000000
C    -1.803000000    -1.936000000     0.352000000
C    -2.819000000    -3.038000000     0.659000000
O    -2.485000000    -4.174000000     0.463000000
O    -3.872000000    -2.872000000     1.256000000
