17
-88.73929
C    -2.035000000    -0.420000000     0.532000000
H    -3.069000000    -0.105000000     0.642000000
C    -1.107000000     0.500000000     0.109000000
H    -1.339000000     1.561000000     0.053000000
C     0.196000000     0.202000000    -0.176000000
C     1.228000000     1.215000000    -0.668000000
H     0.990000000     2.145000000    -0.148000000
H     2.164000000     0.825000000    -0.262000000
H     1.183000000     1.360000000    -1.749000000
C     0.580000000    -1.124000000     0.017000000
H     1.615000000    -1.360000000    -0.215000000
C    -0.286000000    -2.108000000     0.574000000
H     0.106000000    -3.105000000     0.756000000
C    -1.622000000    -1.772000000     0.827000000
C    -2.638000000    -2.842000000     1.157000000
O    -2.358000000    -3.971000000     1.427000000
O    -3.802000000    -2.529000000     1.327000000
