17
-93.30819
C    -1.898000000    -1.337000000     1.258000000
H    -2.800000000    -1.180000000     1.844000000
C    -1.163000000    -0.222000000     0.815000000
H    -1.527000000     0.802000000     0.828000000
C     0.135000000    -0.446000000     0.284000000
C     0.955000000     0.732000000    -0.361000000
H     0.995000000     0.663000000    -1.450000000
H     0.488000000     1.663000000    -0.033000000
H     2.013000000     0.677000000    -0.094000000
C     0.614000000    -1.762000000     0.154000000
H     1.588000000    -1.831000000    -0.323000000
C    -0.180000000    -2.827000000     0.463000000
H     0.153000000    -3.856000000     0.357000000
C    -1.442000000    -2.674000000     1.060000000
C    -2.168000000    -3.797000000     1.584000000
O    -1.687000000    -4.917000000     1.718000000
O    -3.332000000    -3.638000000     2.036000000
