17
-88.39048
C    -2.211000000    -0.520000000     0.011000000
H    -3.188000000    -0.064000000     0.154000000
C    -1.022000000     0.199000000     0.054000000
H    -1.026000000     1.206000000     0.464000000
C     0.155000000    -0.369000000    -0.278000000
C     1.420000000     0.439000000    -0.414000000
H     1.293000000     1.197000000    -1.189000000
H     1.791000000     0.888000000     0.510000000
H     2.243000000    -0.191000000    -0.756000000
C     0.204000000    -1.702000000    -0.632000000
H     1.144000000    -2.169000000    -0.916000000
C    -0.966000000    -2.448000000    -0.657000000
H    -0.963000000    -3.507000000    -0.901000000
C    -2.185000000    -1.883000000    -0.272000000
C    -3.420000000    -2.767000000    -0.393000000
O    -3.302000000    -3.967000000    -0.424000000
O    -4.434000000    -2.260000000    -0.157000000
