17
-100.20240
C    -3.083000000    -0.132000000    -0.057000000
H    -3.890000000     0.530000000     0.247000000
C    -1.845000000     0.507000000    -0.013000000
H    -1.762000000     1.478000000     0.467000000
C    -0.685000000    -0.160000000    -0.486000000
C     0.597000000     0.636000000    -0.530000000
H     0.681000000     1.467000000     0.173000000
H     1.452000000     0.022000000    -0.236000000
H     0.793000000     1.038000000    -1.526000000
C    -0.738000000    -1.496000000    -0.862000000
H     0.170000000    -2.066000000    -1.038000000
C    -2.020000000    -2.145000000    -0.801000000
H    -1.983000000    -3.200000000    -1.057000000
C    -3.236000000    -1.488000000    -0.489000000
C    -4.601000000    -2.106000000    -0.486000000
O    -4.765000000    -3.273000000    -0.857000000
O    -5.569000000    -1.369000000    -0.122000000
