17
-91.04857
C    -2.709000000     0.337000000     0.170000000
H    -3.484000000     1.048000000     0.445000000
C    -1.442000000     0.791000000     0.156000000
H    -1.175000000     1.799000000     0.464000000
C    -0.416000000    -0.051000000    -0.288000000
C     1.001000000     0.485000000    -0.309000000
H     1.776000000     0.021000000    -0.921000000
H     1.016000000     1.525000000    -0.643000000
H     1.251000000     0.666000000     0.738000000
C    -0.680000000    -1.300000000    -0.648000000
H     0.067000000    -2.004000000    -1.008000000
C    -2.008000000    -1.819000000    -0.722000000
H    -2.296000000    -2.788000000    -1.122000000
C    -3.051000000    -0.955000000    -0.374000000
C    -4.487000000    -1.414000000    -0.520000000
O    -4.840000000    -2.329000000    -1.277000000
O    -5.301000000    -0.725000000     0.022000000
