17
-96.60463
C    -2.485000000     0.272000000     0.667000000
H    -3.193000000     0.897000000     1.205000000
C    -1.163000000     0.679000000     0.554000000
H    -0.835000000     1.659000000     0.890000000
C    -0.204000000    -0.166000000    -0.066000000
C     1.237000000     0.237000000    -0.434000000
H     1.921000000    -0.144000000     0.328000000
H     1.583000000    -0.026000000    -1.436000000
H     1.297000000     1.327000000    -0.418000000
C    -0.608000000    -1.430000000    -0.419000000
H     0.059000000    -2.176000000    -0.843000000
C    -1.918000000    -1.850000000    -0.254000000
H    -2.194000000    -2.863000000    -0.532000000
C    -2.905000000    -0.975000000     0.199000000
C    -4.402000000    -1.145000000     0.146000000
O    -4.824000000    -2.195000000    -0.344000000
O    -5.188000000    -0.404000000     0.710000000
