17
-98.50750
C    -2.622000000     0.020000000     0.489000000
H    -3.461000000     0.622000000     0.827000000
C    -1.329000000     0.570000000     0.468000000
H    -1.119000000     1.535000000     0.923000000
C    -0.335000000    -0.112000000    -0.222000000
C     1.135000000     0.439000000    -0.163000000
H     1.110000000     1.521000000    -0.304000000
H     1.700000000     0.107000000     0.711000000
H     1.650000000     0.030000000    -1.035000000
C    -0.610000000    -1.381000000    -0.778000000
H     0.178000000    -1.970000000    -1.240000000
C    -1.907000000    -1.923000000    -0.796000000
H    -2.083000000    -2.899000000    -1.242000000
C    -2.968000000    -1.168000000    -0.146000000
C    -4.358000000    -1.785000000     0.017000000
O    -4.600000000    -2.849000000    -0.535000000
O    -5.274000000    -1.167000000     0.610000000
