17
-99.33698
C    -2.950000000    -0.498000000    -0.254000000
H    -3.842000000     0.006000000     0.110000000
C    -1.713000000     0.215000000    -0.132000000
H    -1.702000000     1.254000000     0.189000000
C    -0.503000000    -0.433000000    -0.472000000
C     0.778000000     0.324000000    -0.322000000
H     0.607000000     1.402000000    -0.281000000
H     1.300000000     0.130000000     0.617000000
H     1.398000000     0.066000000    -1.183000000
C    -0.551000000    -1.797000000    -0.857000000
H     0.340000000    -2.330000000    -1.180000000
C    -1.754000000    -2.528000000    -0.916000000
H    -1.704000000    -3.548000000    -1.289000000
C    -2.947000000    -1.861000000    -0.679000000
C    -4.294000000    -2.587000000    -0.792000000
O    -4.362000000    -3.732000000    -1.171000000
O    -5.292000000    -1.974000000    -0.478000000
