17
-86.23522
C     0.322000000    -2.425000000    -0.151000000
H     0.045000000    -3.263000000    -0.785000000
C     0.028000000    -1.139000000    -0.545000000
H    -0.543000000    -1.112000000    -1.469000000
C     0.251000000    -0.051000000     0.306000000
C    -0.398000000     1.291000000     0.008000000
H    -1.485000000     1.189000000    -0.038000000
H    -0.020000000     1.951000000     0.791000000
H    -0.105000000     1.836000000    -0.892000000
C     1.015000000    -0.235000000     1.449000000
H     1.285000000     0.629000000     2.050000000
C     1.507000000    -1.481000000     1.726000000
H     2.139000000    -1.561000000     2.607000000
C     1.127000000    -2.593000000     0.942000000
C     1.627000000    -3.909000000     1.302000000
O     2.407000000    -4.177000000     2.177000000
O     1.297000000    -4.876000000     0.621000000
