17
-100.91378
C    -2.692000000     0.064000000     0.152000000
H    -3.626000000     0.543000000     0.434000000
C    -1.471000000     0.700000000     0.208000000
H    -1.443000000     1.729000000     0.558000000
C    -0.310000000     0.113000000    -0.225000000
C     1.022000000     0.802000000    -0.132000000
H     1.012000000     1.888000000    -0.253000000
H     1.501000000     0.471000000     0.791000000
H     1.611000000     0.373000000    -0.946000000
C    -0.376000000    -1.226000000    -0.620000000
H     0.499000000    -1.819000000    -0.876000000
C    -1.585000000    -1.929000000    -0.517000000
H    -1.661000000    -2.962000000    -0.849000000
C    -2.787000000    -1.283000000    -0.179000000
C    -4.078000000    -2.056000000    -0.217000000
O    -4.012000000    -3.301000000    -0.074000000
O    -5.152000000    -1.491000000    -0.268000000
