17
-98.24386
C    -2.751000000    -0.837000000    -0.173000000
H    -3.717000000    -0.448000000     0.137000000
C    -1.654000000     0.041000000    -0.253000000
H    -1.758000000     1.113000000    -0.107000000
C    -0.390000000    -0.503000000    -0.526000000
C     0.769000000     0.451000000    -0.578000000
H     1.671000000    -0.032000000    -0.197000000
H     1.011000000     0.660000000    -1.622000000
H     0.548000000     1.361000000    -0.016000000
C    -0.282000000    -1.901000000    -0.726000000
H     0.734000000    -2.184000000    -0.989000000
C    -1.389000000    -2.765000000    -0.617000000
H    -1.270000000    -3.842000000    -0.703000000
C    -2.682000000    -2.210000000    -0.412000000
C    -3.904000000    -3.104000000    -0.362000000
O    -3.855000000    -4.217000000     0.166000000
O    -4.940000000    -2.619000000    -0.694000000
