17
-96.57132
C    -2.616000000     0.102000000    -0.152000000
H    -3.535000000     0.600000000     0.146000000
C    -1.377000000     0.557000000     0.194000000
H    -1.290000000     1.600000000     0.490000000
C    -0.216000000    -0.247000000     0.016000000
C     1.145000000     0.343000000    -0.012000000
H     1.530000000     0.310000000     1.009000000
H     1.752000000    -0.210000000    -0.731000000
H     1.202000000     1.399000000    -0.284000000
C    -0.382000000    -1.541000000    -0.447000000
H     0.469000000    -2.216000000    -0.483000000
C    -1.669000000    -2.028000000    -0.789000000
H    -1.675000000    -3.067000000    -1.109000000
C    -2.776000000    -1.224000000    -0.622000000
C    -4.092000000    -1.798000000    -0.998000000
O    -4.177000000    -2.985000000    -1.201000000
O    -5.103000000    -1.061000000    -0.862000000
