17
-92.85009
C    -2.936000000    -0.336000000    -0.131000000
H    -3.884000000     0.030000000     0.256000000
C    -1.797000000     0.387000000    -0.067000000
H    -1.918000000     1.301000000     0.508000000
C    -0.519000000    -0.083000000    -0.425000000
C     0.793000000     0.536000000    -0.038000000
H     1.617000000    -0.180000000    -0.013000000
H     0.879000000     1.378000000    -0.728000000
H     0.750000000     0.931000000     0.979000000
C    -0.488000000    -1.392000000    -0.931000000
H     0.426000000    -1.932000000    -1.165000000
C    -1.683000000    -2.050000000    -1.164000000
H    -1.627000000    -3.016000000    -1.660000000
C    -2.919000000    -1.557000000    -0.722000000
C    -4.202000000    -2.370000000    -0.822000000
O    -4.095000000    -3.555000000    -0.973000000
O    -5.257000000    -1.804000000    -0.662000000
