17
-99.95092
C    -2.391000000    -0.312000000     0.448000000
H    -3.284000000     0.060000000     0.944000000
C    -1.250000000     0.506000000     0.472000000
H    -1.253000000     1.465000000     0.984000000
C    -0.072000000     0.069000000    -0.100000000
C     1.113000000     1.017000000    -0.136000000
H     0.944000000     1.810000000    -0.867000000
H     1.390000000     1.323000000     0.874000000
H     2.080000000     0.582000000    -0.400000000
C     0.053000000    -1.253000000    -0.561000000
H     0.897000000    -1.694000000    -1.086000000
C    -1.100000000    -2.024000000    -0.614000000
H    -1.095000000    -3.029000000    -1.029000000
C    -2.270000000    -1.586000000    -0.059000000
C    -3.493000000    -2.470000000    -0.076000000
O    -3.411000000    -3.715000000    -0.175000000
O    -4.552000000    -1.855000000     0.167000000
