17
-91.99553
C    -2.021000000    -1.117000000     1.014000000
H    -2.965000000    -0.993000000     1.539000000
C    -1.233000000    -0.019000000     0.734000000
H    -1.505000000     0.937000000     1.172000000
C     0.055000000    -0.170000000     0.192000000
C     0.935000000     0.990000000     0.096000000
H     0.467000000     1.903000000    -0.279000000
H     1.155000000     1.240000000     1.136000000
H     1.858000000     0.636000000    -0.367000000
C     0.384000000    -1.408000000    -0.328000000
H     1.305000000    -1.618000000    -0.865000000
C    -0.418000000    -2.537000000    -0.015000000
H    -0.117000000    -3.493000000    -0.436000000
C    -1.640000000    -2.371000000     0.568000000
C    -2.648000000    -3.557000000     0.680000000
O    -2.417000000    -4.652000000     0.183000000
O    -3.773000000    -3.398000000     1.120000000
