17
-90.68192
C    -1.770000000    -1.477000000     1.105000000
H    -2.779000000    -1.412000000     1.503000000
C    -1.099000000    -0.279000000     0.875000000
H    -1.434000000     0.724000000     1.127000000
C     0.154000000    -0.320000000     0.277000000
C     0.763000000     1.024000000    -0.080000000
H     0.698000000     1.348000000    -1.121000000
H     0.560000000     1.861000000     0.591000000
H     1.855000000     1.007000000    -0.079000000
C     0.712000000    -1.485000000    -0.270000000
H     1.661000000    -1.453000000    -0.800000000
C     0.006000000    -2.658000000    -0.239000000
H     0.352000000    -3.578000000    -0.705000000
C    -1.193000000    -2.680000000     0.551000000
C    -1.979000000    -3.954000000     0.583000000
O    -1.776000000    -4.850000000    -0.222000000
O    -2.987000000    -4.040000000     1.304000000
