17
-97.79532
C    -2.239000000    -1.046000000     1.062000000
H    -3.177000000    -0.949000000     1.603000000
C    -1.379000000     0.071000000     0.913000000
H    -1.710000000     0.945000000     1.469000000
C    -0.149000000    -0.034000000     0.303000000
C     0.749000000     1.148000000     0.236000000
H     1.732000000     0.868000000     0.623000000
H     0.868000000     1.317000000    -0.836000000
H     0.331000000     2.003000000     0.770000000
C     0.214000000    -1.259000000    -0.268000000
H     1.157000000    -1.415000000    -0.786000000
C    -0.635000000    -2.382000000    -0.171000000
H    -0.396000000    -3.318000000    -0.670000000
C    -1.836000000    -2.302000000     0.545000000
C    -2.755000000    -3.479000000     0.447000000
O    -2.263000000    -4.581000000     0.128000000
O    -3.870000000    -3.449000000     0.934000000
