17
-96.41421
C    -2.068000000    -1.074000000     0.978000000
H    -3.111000000    -1.020000000     1.281000000
C    -1.397000000     0.081000000     0.588000000
H    -1.888000000     1.044000000     0.704000000
C    -0.069000000     0.052000000     0.165000000
C     0.794000000     1.279000000    -0.020000000
H     0.398000000     2.053000000     0.641000000
H     1.718000000     1.011000000     0.496000000
H     0.864000000     1.600000000    -1.061000000
C     0.424000000    -1.237000000    -0.018000000
H     1.417000000    -1.332000000    -0.449000000
C    -0.222000000    -2.388000000     0.311000000
H     0.333000000    -3.321000000     0.246000000
C    -1.473000000    -2.313000000     0.902000000
C    -2.225000000    -3.562000000     1.314000000
O    -1.792000000    -4.622000000     0.928000000
O    -3.278000000    -3.524000000     1.987000000
