17
-92.51851
C    -1.458000000    -1.569000000     1.290000000
H    -2.318000000    -1.468000000     1.947000000
C    -1.026000000    -0.369000000     0.821000000
H    -1.585000000     0.506000000     1.144000000
C     0.110000000    -0.304000000    -0.019000000
C     0.614000000     1.109000000    -0.307000000
H     1.640000000     1.198000000     0.055000000
H     0.536000000     1.337000000    -1.372000000
H     0.029000000     1.857000000     0.232000000
C     0.642000000    -1.500000000    -0.494000000
H     1.549000000    -1.443000000    -1.089000000
C     0.151000000    -2.723000000    -0.076000000
H     0.586000000    -3.680000000    -0.356000000
C    -0.911000000    -2.776000000     0.919000000
C    -1.612000000    -4.052000000     1.282000000
O    -1.340000000    -5.096000000     0.788000000
O    -2.623000000    -3.970000000     2.013000000
