17
-90.17209
C    -1.765000000    -2.129000000     0.841000000
H    -2.693000000    -2.313000000     1.376000000
C    -1.205000000    -0.832000000     0.811000000
H    -1.699000000    -0.039000000     1.367000000
C    -0.017000000    -0.628000000     0.111000000
C     0.624000000     0.706000000     0.024000000
H     0.235000000     1.215000000    -0.860000000
H     0.397000000     1.264000000     0.935000000
H     1.698000000     0.543000000    -0.087000000
C     0.540000000    -1.702000000    -0.497000000
H     1.509000000    -1.604000000    -0.979000000
C     0.010000000    -3.000000000    -0.414000000
H     0.455000000    -3.854000000    -0.917000000
C    -1.101000000    -3.242000000     0.313000000
C    -1.589000000    -4.630000000     0.421000000
O    -1.142000000    -5.536000000    -0.218000000
O    -2.634000000    -4.865000000     1.018000000
