17
-89.21702
C    -2.110000000    -1.647000000     0.802000000
H    -3.023000000    -1.703000000     1.390000000
C    -1.421000000    -0.358000000     0.796000000
H    -1.872000000     0.590000000     1.076000000
C    -0.220000000    -0.228000000     0.097000000
C     0.487000000     1.071000000     0.050000000
H     1.537000000     1.038000000     0.348000000
H     0.382000000     1.673000000    -0.855000000
H     0.027000000     1.652000000     0.851000000
C     0.498000000    -1.403000000    -0.242000000
H     1.509000000    -1.375000000    -0.640000000
C    -0.135000000    -2.686000000    -0.134000000
H     0.262000000    -3.574000000    -0.620000000
C    -1.436000000    -2.782000000     0.318000000
C    -2.174000000    -4.127000000     0.227000000
O    -1.659000000    -5.102000000    -0.325000000
O    -3.375000000    -4.044000000     0.372000000
