17
-92.43994
C    -1.740000000    -2.035000000     0.722000000
H    -2.687000000    -2.140000000     1.246000000
C    -1.153000000    -0.799000000     0.742000000
H    -1.591000000     0.046000000     1.266000000
C     0.052000000    -0.618000000     0.038000000
C     0.653000000     0.775000000     0.181000000
H     0.801000000     1.175000000    -0.824000000
H     0.220000000     1.557000000     0.808000000
H     1.649000000     0.754000000     0.628000000
C     0.671000000    -1.639000000    -0.619000000
H     1.660000000    -1.446000000    -1.027000000
C     0.087000000    -2.888000000    -0.675000000
H     0.558000000    -3.692000000    -1.235000000
C    -1.097000000    -3.055000000     0.034000000
C    -1.684000000    -4.410000000     0.041000000
O    -1.107000000    -5.346000000    -0.417000000
O    -2.866000000    -4.577000000     0.420000000
