17
-98.95212
C    -2.207000000    -2.142000000     0.818000000
H    -3.186000000    -2.209000000     1.286000000
C    -1.545000000    -0.872000000     0.930000000
H    -1.978000000    -0.015000000     1.440000000
C    -0.331000000    -0.639000000     0.244000000
C     0.461000000     0.628000000     0.293000000
H     0.654000000     0.948000000    -0.733000000
H    -0.002000000     1.458000000     0.829000000
H     1.466000000     0.520000000     0.705000000
C     0.275000000    -1.696000000    -0.478000000
H     1.163000000    -1.453000000    -1.056000000
C    -0.364000000    -2.931000000    -0.430000000
H     0.070000000    -3.746000000    -1.004000000
C    -1.599000000    -3.212000000     0.210000000
C    -2.258000000    -4.569000000     0.245000000
O    -1.639000000    -5.482000000    -0.287000000
O    -3.431000000    -4.672000000     0.572000000
