17
-100.40634
C    -1.781000000    -2.036000000     0.529000000
H    -2.683000000    -2.321000000     1.065000000
C    -1.178000000    -0.821000000     0.732000000
H    -1.589000000    -0.106000000     1.441000000
C    -0.009000000    -0.477000000     0.058000000
C     0.596000000     0.895000000     0.166000000
H    -0.199000000     1.560000000    -0.178000000
H     0.629000000     1.283000000     1.187000000
H     1.577000000     0.926000000    -0.314000000
C     0.623000000    -1.462000000    -0.708000000
H     1.451000000    -1.221000000    -1.369000000
C     0.034000000    -2.732000000    -0.805000000
H     0.465000000    -3.506000000    -1.434000000
C    -1.172000000    -3.017000000    -0.208000000
C    -1.814000000    -4.394000000    -0.488000000
O    -1.362000000    -5.147000000    -1.331000000
O    -2.809000000    -4.630000000     0.210000000
