17
-88.89472
C    -2.090000000    -0.849000000    -0.278000000
H    -3.175000000    -0.794000000    -0.293000000
C    -1.239000000     0.176000000     0.100000000
H    -1.683000000     1.067000000     0.536000000
C     0.160000000     0.049000000    -0.203000000
C     1.118000000     1.193000000     0.163000000
H     1.321000000     1.907000000    -0.637000000
H     0.853000000     1.783000000     1.043000000
H     2.094000000     0.742000000     0.354000000
C     0.643000000    -1.073000000    -0.816000000
H     1.683000000    -1.200000000    -1.105000000
C    -0.210000000    -2.076000000    -1.160000000
H     0.112000000    -2.949000000    -1.722000000
C    -1.583000000    -2.056000000    -0.854000000
C    -2.457000000    -3.246000000    -1.130000000
O    -2.134000000    -4.256000000    -1.700000000
O    -3.619000000    -3.259000000    -0.760000000
