17
-93.88041
C    -2.521000000    -0.812000000     0.269000000
H    -3.451000000    -0.771000000     0.832000000
C    -1.473000000     0.090000000     0.532000000
H    -1.617000000     0.917000000     1.223000000
C    -0.288000000    -0.059000000    -0.121000000
C     0.774000000     0.960000000     0.193000000
H     1.256000000     0.869000000     1.168000000
H     1.583000000     0.809000000    -0.525000000
H     0.461000000     2.005000000     0.162000000
C    -0.055000000    -1.199000000    -0.939000000
H     0.859000000    -1.408000000    -1.489000000
C    -1.152000000    -1.959000000    -1.299000000
H    -0.971000000    -2.778000000    -1.990000000
C    -2.395000000    -1.816000000    -0.687000000
C    -3.574000000    -2.645000000    -1.191000000
O    -3.401000000    -3.711000000    -1.752000000
O    -4.664000000    -2.296000000    -0.883000000
