17
-93.20240
C    -2.340000000    -0.258000000    -0.299000000
H    -3.378000000    -0.042000000    -0.060000000
C    -1.299000000     0.454000000     0.352000000
H    -1.538000000     1.149000000     1.153000000
C     0.032000000     0.175000000     0.054000000
C     1.148000000     0.880000000     0.643000000
H     0.727000000     1.757000000     1.141000000
H     1.619000000     0.217000000     1.372000000
H     1.900000000     1.251000000    -0.056000000
C     0.221000000    -0.868000000    -0.852000000
H     1.261000000    -1.129000000    -1.034000000
C    -0.817000000    -1.566000000    -1.489000000
H    -0.563000000    -2.209000000    -2.328000000
C    -2.132000000    -1.162000000    -1.359000000
C    -3.293000000    -1.794000000    -2.108000000
O    -3.231000000    -2.927000000    -2.505000000
O    -4.358000000    -1.197000000    -2.087000000
