17
-98.58347
C    -2.235000000     0.060000000    -0.666000000
H    -3.225000000     0.509000000    -0.653000000
C    -1.149000000     0.679000000    -0.004000000
H    -1.272000000     1.652000000     0.464000000
C     0.055000000    -0.028000000     0.128000000
C     1.299000000     0.580000000     0.794000000
H     2.205000000     0.216000000     0.306000000
H     1.182000000     1.656000000     0.649000000
H     1.302000000     0.317000000     1.854000000
C     0.229000000    -1.278000000    -0.501000000
H     1.197000000    -1.770000000    -0.455000000
C    -0.816000000    -1.835000000    -1.155000000
H    -0.771000000    -2.737000000    -1.760000000
C    -2.054000000    -1.138000000    -1.235000000
C    -3.212000000    -1.835000000    -1.926000000
O    -3.154000000    -2.995000000    -2.377000000
O    -4.198000000    -1.160000000    -2.034000000
