17
-98.22252
C    -2.504000000    -0.558000000    -1.208000000
H    -3.518000000    -0.168000000    -1.235000000
C    -1.518000000     0.207000000    -0.576000000
H    -1.701000000     1.197000000    -0.167000000
C    -0.225000000    -0.311000000    -0.423000000
C     0.927000000     0.565000000     0.126000000
H     1.799000000    -0.022000000     0.419000000
H     1.149000000     1.302000000    -0.649000000
H     0.707000000     1.042000000     1.084000000
C     0.068000000    -1.579000000    -0.961000000
H     1.043000000    -2.057000000    -0.900000000
C    -0.898000000    -2.361000000    -1.594000000
H    -0.540000000    -3.289000000    -2.033000000
C    -2.176000000    -1.842000000    -1.724000000
C    -3.252000000    -2.690000000    -2.293000000
O    -3.176000000    -3.921000000    -2.302000000
O    -4.348000000    -2.090000000    -2.425000000
