17
-100.85111
C    -1.814000000    -1.204000000    -2.473000000
H    -2.421000000    -1.027000000    -3.357000000
C    -1.203000000    -0.231000000    -1.719000000
H    -1.249000000     0.822000000    -1.987000000
C    -0.590000000    -0.576000000    -0.547000000
C     0.055000000     0.489000000     0.280000000
H     0.422000000     0.060000000     1.215000000
H     0.901000000     0.903000000    -0.273000000
H    -0.666000000     1.287000000     0.464000000
C    -0.713000000    -1.894000000    -0.068000000
H    -0.315000000    -2.112000000     0.920000000
C    -1.232000000    -2.942000000    -0.863000000
H    -1.242000000    -3.986000000    -0.559000000
C    -1.742000000    -2.561000000    -2.118000000
C    -2.600000000    -3.548000000    -2.933000000
O    -2.540000000    -4.740000000    -2.646000000
O    -3.370000000    -3.090000000    -3.749000000
