17
-97.93937
C    -2.328000000    -0.211000000    -0.855000000
H    -3.333000000     0.201000000    -0.807000000
C    -1.179000000     0.526000000    -0.428000000
H    -1.237000000     1.567000000    -0.120000000
C     0.057000000    -0.042000000    -0.313000000
C     1.184000000     0.736000000     0.249000000
H     0.894000000     1.754000000     0.515000000
H     1.666000000     0.315000000     1.134000000
H     1.896000000     0.892000000    -0.564000000
C     0.133000000    -1.401000000    -0.584000000
H     1.074000000    -1.931000000    -0.459000000
C    -0.948000000    -2.134000000    -1.038000000
H    -0.809000000    -3.172000000    -1.330000000
C    -2.213000000    -1.573000000    -1.193000000
C    -3.410000000    -2.477000000    -1.670000000
O    -3.202000000    -3.661000000    -1.657000000
O    -4.408000000    -1.951000000    -2.069000000
