17
-89.17252
C    -2.060000000     0.223000000    -2.069000000
H    -2.853000000     0.917000000    -2.332000000
C    -1.144000000     0.650000000    -1.039000000
H    -1.316000000     1.553000000    -0.458000000
C    -0.027000000    -0.125000000    -0.753000000
C     0.896000000     0.409000000     0.342000000
H     0.339000000     0.867000000     1.162000000
H     1.425000000    -0.439000000     0.783000000
H     1.579000000     1.162000000    -0.058000000
C     0.172000000    -1.377000000    -1.400000000
H     0.988000000    -2.073000000    -1.221000000
C    -0.762000000    -1.746000000    -2.396000000
H    -0.549000000    -2.674000000    -2.920000000
C    -1.881000000    -0.990000000    -2.724000000
C    -2.872000000    -1.479000000    -3.759000000
O    -2.713000000    -2.481000000    -4.438000000
O    -3.889000000    -0.928000000    -3.885000000
