17
-102.08688
C    -1.817000000     0.158000000    -2.475000000
H    -2.546000000     0.758000000    -3.014000000
C    -1.083000000     0.734000000    -1.437000000
H    -1.261000000     1.764000000    -1.137000000
C    -0.105000000     0.005000000    -0.715000000
C     0.652000000     0.721000000     0.412000000
H     0.686000000     1.811000000     0.348000000
H     0.140000000     0.440000000     1.335000000
H     1.674000000     0.340000000     0.469000000
C     0.123000000    -1.359000000    -1.033000000
H     0.863000000    -1.925000000    -0.473000000
C    -0.606000000    -1.928000000    -2.084000000
H    -0.349000000    -2.966000000    -2.283000000
C    -1.586000000    -1.221000000    -2.776000000
C    -2.502000000    -1.907000000    -3.745000000
O    -2.628000000    -3.125000000    -3.777000000
O    -3.162000000    -1.170000000    -4.466000000
