17
-96.27253
C    -2.927000000    -0.255000000    -1.207000000
H    -3.945000000     0.124000000    -1.151000000
C    -1.879000000     0.355000000    -0.558000000
H    -2.029000000     1.328000000    -0.097000000
C    -0.574000000    -0.185000000    -0.534000000
C     0.538000000     0.582000000     0.046000000
H     0.166000000     1.451000000     0.592000000
H     1.062000000    -0.016000000     0.795000000
H     1.290000000     0.984000000    -0.636000000
C    -0.250000000    -1.254000000    -1.321000000
H     0.743000000    -1.693000000    -1.381000000
C    -1.314000000    -1.893000000    -1.989000000
H    -1.046000000    -2.720000000    -2.642000000
C    -2.648000000    -1.373000000    -1.992000000
C    -3.688000000    -2.068000000    -2.815000000
O    -3.512000000    -3.271000000    -3.020000000
O    -4.674000000    -1.511000000    -3.205000000
