17
-93.59618
C    -2.502000000     0.558000000    -0.842000000
H    -3.358000000     1.136000000    -1.180000000
C    -1.367000000     1.208000000    -0.423000000
H    -1.394000000     2.283000000    -0.262000000
C    -0.199000000     0.461000000    -0.083000000
C     1.110000000     1.061000000     0.445000000
H     1.195000000     2.135000000     0.272000000
H     1.148000000     0.941000000     1.530000000
H     2.017000000     0.589000000     0.062000000
C    -0.174000000    -0.905000000    -0.184000000
H     0.671000000    -1.493000000     0.162000000
C    -1.342000000    -1.520000000    -0.641000000
H    -1.349000000    -2.579000000    -0.883000000
C    -2.388000000    -0.802000000    -1.142000000
C    -3.655000000    -1.502000000    -1.654000000
O    -3.592000000    -2.654000000    -1.950000000
O    -4.718000000    -0.900000000    -1.626000000
