17
-88.51960
C     2.941000000    -1.225000000     1.740000000
H     3.801000000    -1.887000000     1.678000000
C     1.869000000    -1.319000000     0.881000000
H     1.929000000    -1.974000000     0.015000000
C     0.832000000    -0.448000000     0.928000000
C    -0.264000000    -0.459000000    -0.106000000
H     0.232000000    -0.663000000    -1.057000000
H    -1.058000000    -1.204000000    -0.016000000
H    -0.563000000     0.571000000    -0.315000000
C     0.798000000     0.502000000     1.939000000
H    -0.095000000     1.115000000     2.031000000
C     1.795000000     0.488000000     2.936000000
H     1.726000000     1.270000000     3.689000000
C     2.889000000    -0.331000000     2.858000000
C     4.067000000    -0.250000000     3.832000000
O     4.104000000     0.446000000     4.844000000
O     5.125000000    -0.787000000     3.582000000
