17
-90.96767
C     0.825000000    -2.064000000    -1.286000000
H     1.037000000    -2.526000000    -2.247000000
C     0.147000000    -0.865000000    -1.266000000
H    -0.319000000    -0.344000000    -2.098000000
C    -0.003000000    -0.175000000    -0.040000000
C    -0.818000000     1.065000000     0.116000000
H    -1.337000000     1.230000000    -0.830000000
H    -1.582000000     0.954000000     0.889000000
H    -0.272000000     2.008000000     0.186000000
C     0.391000000    -0.719000000     1.158000000
H     0.139000000    -0.209000000     2.084000000
C     1.024000000    -1.944000000     1.080000000
H     1.288000000    -2.366000000     2.046000000
C     1.260000000    -2.614000000    -0.089000000
C     2.071000000    -3.856000000    -0.059000000
O     2.223000000    -4.529000000     0.967000000
O     2.694000000    -4.117000000    -1.035000000
