17
-85.00917
C    -2.244000000    -0.573000000    -1.244000000
H    -3.150000000    -0.270000000    -1.762000000
C    -1.322000000     0.344000000    -0.740000000
H    -1.460000000     1.420000000    -0.663000000
C    -0.047000000    -0.050000000    -0.316000000
C     0.901000000     0.907000000     0.319000000
H     1.785000000     1.012000000    -0.313000000
H     0.470000000     1.887000000     0.533000000
H     1.164000000     0.404000000     1.252000000
C     0.260000000    -1.397000000    -0.241000000
H     1.144000000    -1.810000000     0.239000000
C    -0.645000000    -2.301000000    -0.669000000
H    -0.503000000    -3.377000000    -0.603000000
C    -1.844000000    -1.894000000    -1.254000000
C    -2.676000000    -3.012000000    -1.981000000
O    -2.241000000    -4.110000000    -2.153000000
O    -3.803000000    -2.862000000    -2.366000000
