17
-96.92432
C    -2.729000000     0.400000000    -1.332000000
H    -3.677000000     0.921000000    -1.220000000
C    -1.589000000     0.704000000    -0.571000000
H    -1.652000000     1.580000000     0.071000000
C    -0.365000000     0.071000000    -0.716000000
C     0.814000000     0.363000000     0.244000000
H     1.632000000     0.721000000    -0.385000000
H     0.594000000     1.101000000     1.019000000
H     1.111000000    -0.604000000     0.654000000
C    -0.331000000    -0.995000000    -1.561000000
H     0.523000000    -1.664000000    -1.484000000
C    -1.389000000    -1.409000000    -2.341000000
H    -1.261000000    -2.201000000    -3.075000000
C    -2.633000000    -0.654000000    -2.256000000
C    -3.857000000    -1.220000000    -2.941000000
O    -3.788000000    -2.189000000    -3.699000000
O    -4.910000000    -0.626000000    -2.724000000
