17
-94.78917
C     1.127000000    -1.855000000    -1.212000000
H     1.200000000    -2.494000000    -2.088000000
C     0.146000000    -0.841000000    -1.179000000
H    -0.572000000    -0.677000000    -1.978000000
C     0.051000000    -0.044000000    -0.062000000
C    -0.990000000     1.042000000     0.007000000
H    -1.185000000     1.407000000     1.018000000
H    -0.639000000     1.890000000    -0.585000000
H    -1.931000000     0.691000000    -0.419000000
C     0.849000000    -0.225000000     1.026000000
H     0.678000000     0.379000000     1.914000000
C     1.932000000    -1.101000000     0.914000000
H     2.563000000    -1.400000000     1.748000000
C     2.086000000    -1.872000000    -0.224000000
C     3.221000000    -2.832000000    -0.321000000
O     3.933000000    -3.048000000     0.648000000
O     3.458000000    -3.302000000    -1.382000000
