17
-97.36612
C    -2.202000000    -1.140000000    -0.283000000
H    -3.278000000    -1.038000000    -0.170000000
C    -1.468000000    -0.118000000     0.144000000
H    -1.881000000     0.803000000     0.549000000
C    -0.041000000    -0.155000000     0.106000000
C     0.735000000     1.145000000     0.441000000
H     0.092000000     1.916000000     0.870000000
H     1.540000000     1.040000000     1.171000000
H     1.154000000     1.579000000    -0.470000000
C     0.581000000    -1.234000000    -0.425000000
H     1.653000000    -1.380000000    -0.526000000
C    -0.215000000    -2.316000000    -0.925000000
H     0.308000000    -3.175000000    -1.337000000
C    -1.632000000    -2.291000000    -0.884000000
C    -2.433000000    -3.453000000    -1.434000000
O    -1.838000000    -4.299000000    -2.064000000
O    -3.663000000    -3.296000000    -1.426000000
