17
-91.87735
C    -2.520000000    -0.377000000    -0.684000000
H    -3.538000000    -0.026000000    -0.534000000
C    -1.494000000     0.335000000    -0.132000000
H    -1.756000000     1.220000000     0.443000000
C    -0.203000000    -0.146000000    -0.289000000
C     1.009000000     0.474000000     0.353000000
H     1.450000000     1.263000000    -0.260000000
H     0.976000000     0.746000000     1.410000000
H     1.770000000    -0.309000000     0.317000000
C     0.004000000    -1.343000000    -1.021000000
H     1.002000000    -1.769000000    -1.088000000
C    -1.033000000    -2.039000000    -1.549000000
H    -0.688000000    -2.943000000    -2.043000000
C    -2.333000000    -1.615000000    -1.404000000
C    -3.534000000    -2.344000000    -1.957000000
O    -3.365000000    -3.361000000    -2.686000000
O    -4.599000000    -1.743000000    -2.047000000
