17
-98.00197
C    -2.766000000    -0.409000000    -0.035000000
H    -3.754000000     0.040000000     0.018000000
C    -1.607000000     0.354000000     0.189000000
H    -1.714000000     1.428000000     0.312000000
C    -0.337000000    -0.140000000     0.137000000
C     0.877000000     0.682000000     0.452000000
H     1.433000000     0.804000000    -0.480000000
H     0.735000000     1.663000000     0.909000000
H     1.534000000     0.185000000     1.168000000
C    -0.200000000    -1.493000000    -0.085000000
H     0.753000000    -1.999000000    -0.220000000
C    -1.305000000    -2.362000000    -0.220000000
H    -1.228000000    -3.435000000    -0.372000000
C    -2.620000000    -1.769000000    -0.250000000
C    -3.881000000    -2.615000000    -0.605000000
O    -3.825000000    -3.824000000    -0.680000000
O    -4.924000000    -2.020000000    -0.729000000
