17
-93.13638
C    -3.324000000    -0.692000000     0.099000000
H    -4.308000000    -0.285000000    -0.121000000
C    -2.172000000     0.141000000    -0.086000000
H    -2.329000000     1.207000000    -0.229000000
C    -0.878000000    -0.365000000     0.102000000
C     0.338000000     0.537000000     0.251000000
H     0.940000000     0.557000000    -0.660000000
H     0.002000000     1.561000000     0.422000000
H     0.938000000     0.219000000     1.107000000
C    -0.699000000    -1.690000000     0.226000000
H     0.276000000    -2.168000000     0.277000000
C    -1.749000000    -2.561000000     0.242000000
H    -1.557000000    -3.631000000     0.231000000
C    -3.105000000    -2.064000000     0.102000000
C    -4.298000000    -3.029000000     0.145000000
O    -3.990000000    -4.201000000     0.031000000
O    -5.403000000    -2.616000000     0.260000000
