17
-96.86563
C     1.761000000    -1.026000000    -1.929000000
H     1.895000000    -1.317000000    -2.968000000
C     0.731000000    -0.155000000    -1.572000000
H     0.096000000     0.284000000    -2.337000000
C     0.372000000    -0.005000000    -0.233000000
C    -0.729000000     0.892000000     0.045000000
H    -1.441000000     0.999000000    -0.776000000
H    -1.186000000     0.496000000     0.954000000
H    -0.469000000     1.909000000     0.346000000
C     1.054000000    -0.720000000     0.737000000
H     0.798000000    -0.611000000     1.788000000
C     2.140000000    -1.544000000     0.383000000
H     2.839000000    -1.997000000     1.082000000
C     2.529000000    -1.666000000    -0.970000000
C     3.770000000    -2.428000000    -1.263000000
O     4.195000000    -3.091000000    -0.352000000
O     4.273000000    -2.455000000    -2.410000000
