17
-98.11674
C    -2.215000000    -0.768000000    -1.037000000
H    -3.278000000    -0.570000000    -1.148000000
C    -1.432000000     0.245000000    -0.403000000
H    -1.842000000     1.182000000    -0.034000000
C    -0.093000000    -0.025000000    -0.056000000
C     0.703000000     0.943000000     0.782000000
H     0.314000000     0.991000000     1.801000000
H     1.755000000     0.676000000     0.893000000
H     0.731000000     1.969000000     0.409000000
C     0.525000000    -1.198000000    -0.427000000
H     1.575000000    -1.394000000    -0.224000000
C    -0.222000000    -2.141000000    -1.200000000
H     0.266000000    -3.026000000    -1.600000000
C    -1.603000000    -1.967000000    -1.397000000
C    -2.415000000    -3.100000000    -1.945000000
O    -1.942000000    -4.128000000    -2.433000000
O    -3.637000000    -3.031000000    -1.918000000
