17
-95.91050
C    -1.839000000    -0.068000000    -1.580000000
H    -2.843000000     0.225000000    -1.874000000
C    -1.201000000     0.478000000    -0.434000000
H    -1.676000000     1.261000000     0.152000000
C     0.112000000     0.167000000    -0.157000000
C     0.805000000     0.994000000     0.930000000
H     0.115000000     1.159000000     1.761000000
H     1.763000000     0.660000000     1.332000000
H     0.966000000     2.029000000     0.619000000
C     0.809000000    -0.788000000    -0.879000000
H     1.843000000    -1.080000000    -0.716000000
C     0.124000000    -1.360000000    -1.937000000
H     0.686000000    -2.105000000    -2.495000000
C    -1.138000000    -1.039000000    -2.322000000
C    -1.725000000    -1.562000000    -3.627000000
O    -1.392000000    -2.703000000    -3.982000000
O    -2.691000000    -1.046000000    -4.181000000
