17
-90.80423
C    -2.222000000    -0.276000000    -2.046000000
H    -3.241000000     0.037000000    -2.257000000
C    -1.500000000     0.328000000    -1.004000000
H    -2.068000000     1.151000000    -0.577000000
C    -0.233000000    -0.061000000    -0.526000000
C     0.412000000     0.577000000     0.693000000
H     1.473000000     0.735000000     0.488000000
H    -0.042000000     1.552000000     0.886000000
H     0.393000000    -0.012000000     1.612000000
C     0.285000000    -1.151000000    -1.156000000
H     1.252000000    -1.558000000    -0.873000000
C    -0.351000000    -1.742000000    -2.290000000
H     0.188000000    -2.503000000    -2.848000000
C    -1.629000000    -1.323000000    -2.699000000
C    -2.255000000    -1.856000000    -3.972000000
O    -1.565000000    -2.521000000    -4.726000000
O    -3.422000000    -1.816000000    -4.174000000
