17
-92.70906
C    -0.292000000    -0.839000000    -2.384000000
H    -0.398000000    -0.789000000    -3.464000000
C    -0.064000000     0.280000000    -1.563000000
H    -0.166000000     1.243000000    -2.057000000
C     0.266000000     0.144000000    -0.234000000
C     0.712000000     1.331000000     0.517000000
H     1.800000000     1.347000000     0.609000000
H     0.319000000     2.227000000     0.032000000
H     0.365000000     1.481000000     1.541000000
C     0.222000000    -1.113000000     0.398000000
H     0.461000000    -1.210000000     1.454000000
C     0.059000000    -2.224000000    -0.393000000
H    -0.166000000    -3.160000000     0.113000000
C    -0.203000000    -2.103000000    -1.768000000
C    -0.413000000    -3.345000000    -2.630000000
O    -0.518000000    -4.408000000    -2.045000000
O    -0.666000000    -3.301000000    -3.792000000
