17
-94.29626
C    -0.619000000    -1.032000000    -2.062000000
H    -0.687000000    -1.027000000    -3.147000000
C    -0.098000000     0.066000000    -1.453000000
H     0.107000000     0.938000000    -2.068000000
C     0.135000000     0.050000000    -0.092000000
C     0.633000000     1.349000000     0.583000000
H     0.551000000     1.288000000     1.670000000
H     1.689000000     1.569000000     0.413000000
H     0.000000000     2.136000000     0.167000000
C    -0.167000000    -1.120000000     0.626000000
H    -0.017000000    -1.144000000     1.702000000
C    -0.757000000    -2.217000000    -0.004000000
H    -0.813000000    -3.154000000     0.543000000
C    -0.915000000    -2.167000000    -1.399000000
C    -1.327000000    -3.429000000    -2.198000000
O    -1.145000000    -4.543000000    -1.702000000
O    -1.886000000    -3.392000000    -3.271000000
