17
-93.89087
C    -0.680000000    -1.440000000    -1.841000000
H    -0.965000000    -1.685000000    -2.861000000
C    -0.235000000    -0.202000000    -1.402000000
H    -0.090000000     0.642000000    -2.071000000
C     0.151000000    -0.039000000    -0.024000000
C     0.483000000     1.391000000     0.491000000
H     0.776000000     1.288000000     1.538000000
H     1.313000000     1.802000000    -0.089000000
H    -0.359000000     2.077000000     0.387000000
C     0.037000000    -1.079000000     0.834000000
H     0.247000000    -1.016000000     1.898000000
C    -0.538000000    -2.286000000     0.398000000
H    -0.565000000    -3.111000000     1.105000000
C    -0.918000000    -2.444000000    -0.957000000
C    -1.339000000    -3.846000000    -1.472000000
O    -1.354000000    -4.797000000    -0.761000000
O    -1.716000000    -3.927000000    -2.625000000
