17
-88.96063
C    -0.932000000    -1.342000000    -2.563000000
H    -1.147000000    -1.393000000    -3.628000000
C    -0.437000000    -0.188000000    -1.959000000
H    -0.233000000     0.741000000    -2.484000000
C    -0.327000000    -0.085000000    -0.576000000
C     0.256000000     1.136000000     0.095000000
H     0.780000000     1.741000000    -0.647000000
H    -0.536000000     1.664000000     0.630000000
H     1.008000000     0.824000000     0.823000000
C    -0.607000000    -1.178000000     0.163000000
H    -0.513000000    -1.086000000     1.242000000
C    -1.014000000    -2.349000000    -0.401000000
H    -1.211000000    -3.207000000     0.236000000
C    -1.169000000    -2.518000000    -1.796000000
C    -1.596000000    -3.894000000    -2.321000000
O    -1.488000000    -4.846000000    -1.632000000
O    -1.756000000    -4.006000000    -3.498000000
