17
-88.68202
C    -0.232000000    -1.587000000    -2.390000000
H    -0.497000000    -1.583000000    -3.444000000
C     0.221000000    -0.411000000    -1.779000000
H     0.531000000     0.467000000    -2.341000000
C     0.313000000    -0.278000000    -0.363000000
C     0.679000000     1.035000000     0.264000000
H     1.062000000     1.770000000    -0.446000000
H    -0.180000000     1.532000000     0.720000000
H     1.468000000     0.941000000     1.013000000
C     0.087000000    -1.431000000     0.434000000
H     0.146000000    -1.329000000     1.515000000
C    -0.213000000    -2.644000000    -0.176000000
H    -0.409000000    -3.556000000     0.383000000
C    -0.371000000    -2.700000000    -1.597000000
C    -0.514000000    -4.039000000    -2.191000000
O    -0.352000000    -5.071000000    -1.561000000
O    -0.848000000    -4.017000000    -3.295000000
