17
-92.45526
C    -0.181000000    -1.974000000    -2.145000000
H    -0.195000000    -2.349000000    -3.165000000
C     0.126000000    -0.657000000    -1.708000000
H     0.451000000     0.111000000    -2.406000000
C     0.009000000    -0.347000000    -0.323000000
C     0.389000000     1.110000000     0.068000000
H     0.780000000     1.702000000    -0.763000000
H    -0.514000000     1.607000000     0.431000000
H     1.090000000     1.034000000     0.901000000
C    -0.558000000    -1.304000000     0.578000000
H    -0.705000000    -1.065000000     1.628000000
C    -0.753000000    -2.642000000     0.195000000
H    -1.112000000    -3.392000000     0.895000000
C    -0.650000000    -2.923000000    -1.184000000
C    -0.977000000    -4.263000000    -1.672000000
O    -1.294000000    -5.181000000    -0.892000000
O    -1.122000000    -4.398000000    -2.846000000
