17
-96.85003
C     0.032000000    -1.873000000    -2.185000000
H     0.013000000    -1.945000000    -3.269000000
C     0.188000000    -0.705000000    -1.562000000
H     0.287000000     0.220000000    -2.124000000
C     0.049000000    -0.588000000    -0.171000000
C     0.136000000     0.756000000     0.549000000
H     1.096000000     1.219000000     0.307000000
H    -0.668000000     1.462000000     0.328000000
H     0.198000000     0.560000000     1.621000000
C    -0.178000000    -1.784000000     0.578000000
H    -0.174000000    -1.799000000     1.665000000
C    -0.359000000    -2.996000000    -0.073000000
H    -0.580000000    -3.923000000     0.449000000
C    -0.299000000    -3.022000000    -1.480000000
C    -0.527000000    -4.321000000    -2.220000000
O    -0.439000000    -5.379000000    -1.602000000
O    -0.742000000    -4.322000000    -3.392000000
