17
-92.45075
C     0.011000000    -2.281000000    -1.559000000
H     0.115000000    -2.634000000    -2.581000000
C     0.422000000    -1.024000000    -1.040000000
H     0.706000000    -0.269000000    -1.768000000
C     0.034000000    -0.589000000     0.237000000
C     0.442000000     0.816000000     0.657000000
H     0.057000000     0.959000000     1.668000000
H     1.496000000     0.967000000     0.901000000
H     0.031000000     1.556000000    -0.033000000
C    -0.687000000    -1.477000000     0.999000000
H    -0.964000000    -1.215000000     2.017000000
C    -0.994000000    -2.776000000     0.572000000
H    -1.445000000    -3.500000000     1.246000000
C    -0.670000000    -3.177000000    -0.747000000
C    -1.275000000    -4.372000000    -1.309000000
O    -2.063000000    -4.998000000    -0.596000000
O    -1.084000000    -4.690000000    -2.462000000
