17
-91.63123
C     0.144000000    -1.959000000    -1.469000000
H     0.451000000    -2.443000000    -2.392000000
C     0.626000000    -0.702000000    -1.096000000
H     1.379000000    -0.221000000    -1.715000000
C     0.187000000    -0.099000000     0.050000000
C     0.717000000     1.226000000     0.560000000
H     1.365000000     1.080000000     1.427000000
H     1.393000000     1.620000000    -0.201000000
H     0.058000000     2.026000000     0.903000000
C    -0.845000000    -0.718000000     0.785000000
H    -1.295000000    -0.151000000     1.597000000
C    -1.319000000    -1.981000000     0.423000000
H    -2.171000000    -2.430000000     0.926000000
C    -0.844000000    -2.587000000    -0.729000000
C    -1.414000000    -3.802000000    -1.323000000
O    -2.523000000    -4.224000000    -1.028000000
O    -0.829000000    -4.444000000    -2.152000000
