17
-88.99460
C    -0.125000000    -1.875000000    -1.538000000
H     0.147000000    -2.171000000    -2.547000000
C     0.491000000    -0.789000000    -1.068000000
H     1.176000000    -0.241000000    -1.711000000
C     0.158000000    -0.251000000     0.200000000
C     1.023000000     0.863000000     0.783000000
H     0.913000000     1.021000000     1.858000000
H     2.065000000     0.717000000     0.492000000
H     0.563000000     1.728000000     0.301000000
C    -0.778000000    -0.939000000     0.948000000
H    -1.090000000    -0.636000000     1.944000000
C    -1.388000000    -2.048000000     0.452000000
H    -2.162000000    -2.541000000     1.034000000
C    -1.091000000    -2.525000000    -0.818000000
C    -1.814000000    -3.709000000    -1.523000000
O    -2.666000000    -4.261000000    -0.910000000
O    -1.590000000    -4.027000000    -2.663000000
