17
-91.41345
C    -0.407000000    -2.548000000    -1.277000000
H    -0.296000000    -3.073000000    -2.223000000
C     0.112000000    -1.280000000    -1.036000000
H     0.762000000    -0.740000000    -1.720000000
C    -0.069000000    -0.596000000     0.104000000
C     0.560000000     0.784000000     0.256000000
H     0.543000000     1.250000000     1.244000000
H     1.584000000     0.903000000    -0.106000000
H    -0.048000000     1.458000000    -0.350000000
C    -1.014000000    -1.068000000     1.058000000
H    -1.378000000    -0.461000000     1.882000000
C    -1.591000000    -2.314000000     0.773000000
H    -2.415000000    -2.601000000     1.421000000
C    -1.303000000    -3.031000000    -0.411000000
C    -1.984000000    -4.291000000    -0.700000000
O    -2.527000000    -4.975000000     0.157000000
O    -1.951000000    -4.701000000    -1.888000000
