17
-89.79676
C     0.004000000    -1.900000000    -1.720000000
H     0.302000000    -2.236000000    -2.710000000
C     0.487000000    -0.724000000    -1.144000000
H     1.088000000    -0.075000000    -1.776000000
C     0.023000000    -0.353000000     0.033000000
C     0.437000000     1.024000000     0.442000000
H     1.491000000     1.256000000     0.274000000
H    -0.028000000     1.768000000    -0.209000000
H     0.048000000     1.368000000     1.403000000
C    -0.703000000    -1.274000000     0.803000000
H    -0.910000000    -0.916000000     1.808000000
C    -1.092000000    -2.498000000     0.328000000
H    -1.649000000    -3.224000000     0.916000000
C    -0.704000000    -2.833000000    -0.956000000
C    -1.103000000    -4.162000000    -1.530000000
O    -1.745000000    -4.960000000    -0.897000000
O    -0.795000000    -4.418000000    -2.683000000
