17
-97.66941
C    -0.119000000    -2.224000000    -2.198000000
H    -0.085000000    -2.403000000    -3.269000000
C     0.233000000    -0.928000000    -1.727000000
H     0.745000000    -0.270000000    -2.425000000
C     0.127000000    -0.573000000    -0.372000000
C     0.493000000     0.787000000     0.117000000
H     0.959000000     1.486000000    -0.581000000
H    -0.508000000     1.201000000     0.254000000
H     0.976000000     0.739000000     1.096000000
C    -0.452000000    -1.509000000     0.503000000
H    -0.609000000    -1.256000000     1.549000000
C    -0.798000000    -2.833000000     0.043000000
H    -1.236000000    -3.481000000     0.798000000
C    -0.711000000    -3.188000000    -1.350000000
C    -1.256000000    -4.471000000    -1.912000000
O    -1.779000000    -5.313000000    -1.154000000
O    -1.391000000    -4.469000000    -3.153000000
