17
-80.57789
C     1.604000000    -1.397000000    -1.917000000
H     1.909000000    -1.586000000    -2.943000000
C     0.485000000    -0.571000000    -1.775000000
H    -0.037000000    -0.138000000    -2.625000000
C     0.228000000    -0.180000000    -0.470000000
C    -0.931000000     0.843000000    -0.285000000
H    -1.807000000     0.683000000    -0.918000000
H    -1.196000000     0.730000000     0.769000000
H    -0.555000000     1.868000000    -0.305000000
C     1.004000000    -0.515000000     0.656000000
H     0.575000000    -0.221000000     1.610000000
C     2.108000000    -1.329000000     0.478000000
H     2.735000000    -1.656000000     1.304000000
C     2.400000000    -1.740000000    -0.841000000
C     3.648000000    -2.504000000    -0.979000000
O     4.267000000    -2.973000000    -0.049000000
O     4.060000000    -2.841000000    -2.030000000
