17
-94.84143
C    -0.679000000    -2.257000000    -1.370000000
H    -0.562000000    -2.693000000    -2.359000000
C    -0.095000000    -1.017000000    -1.086000000
H     0.500000000    -0.554000000    -1.869000000
C    -0.181000000    -0.438000000     0.195000000
C     0.631000000     0.854000000     0.538000000
H     1.245000000     1.224000000    -0.285000000
H    -0.062000000     1.681000000     0.711000000
H     1.235000000     0.705000000     1.435000000
C    -0.814000000    -1.168000000     1.204000000
H    -0.841000000    -0.733000000     2.200000000
C    -1.329000000    -2.482000000     0.872000000
H    -1.954000000    -2.968000000     1.617000000
C    -1.280000000    -3.011000000    -0.369000000
C    -1.981000000    -4.288000000    -0.759000000
O    -2.582000000    -4.953000000     0.058000000
O    -1.953000000    -4.723000000    -1.927000000
