17
-99.13926
C    -1.426000000    -2.632000000    -1.445000000
H    -1.187000000    -3.138000000    -2.377000000
C    -0.705000000    -1.469000000    -1.152000000
H     0.134000000    -1.120000000    -1.748000000
C    -0.916000000    -0.736000000     0.052000000
C    -0.180000000     0.563000000     0.317000000
H     0.733000000     0.663000000    -0.274000000
H    -0.818000000     1.408000000     0.053000000
H     0.104000000     0.658000000     1.367000000
C    -1.870000000    -1.226000000     0.931000000
H    -2.056000000    -0.630000000     1.820000000
C    -2.677000000    -2.286000000     0.535000000
H    -3.573000000    -2.471000000     1.121000000
C    -2.468000000    -3.012000000    -0.633000000
C    -3.273000000    -4.255000000    -0.942000000
O    -3.848000000    -4.808000000    -0.010000000
O    -3.156000000    -4.813000000    -2.017000000
