17
-90.04314
C    -0.727000000    -1.871000000    -1.258000000
H    -0.721000000    -2.375000000    -2.222000000
C    -0.046000000    -0.655000000    -1.268000000
H     0.606000000    -0.379000000    -2.093000000
C     0.062000000    -0.044000000    -0.036000000
C     1.031000000     1.041000000     0.123000000
H     0.604000000     2.019000000    -0.109000000
H     1.421000000     1.044000000     1.143000000
H     1.831000000     0.921000000    -0.611000000
C    -0.606000000    -0.616000000     1.078000000
H    -0.434000000    -0.220000000     2.076000000
C    -1.365000000    -1.757000000     1.007000000
H    -1.898000000    -2.260000000     1.809000000
C    -1.428000000    -2.397000000    -0.198000000
C    -2.391000000    -3.552000000    -0.460000000
O    -3.059000000    -4.015000000     0.457000000
O    -2.772000000    -3.780000000    -1.604000000
