17
-91.33503
C    -1.199000000    -1.838000000    -1.581000000
H    -1.380000000    -2.131000000    -2.612000000
C    -0.266000000    -0.901000000    -1.181000000
H     0.230000000    -0.318000000    -1.953000000
C    -0.188000000    -0.549000000     0.161000000
C     0.818000000     0.537000000     0.508000000
H     0.839000000     0.647000000     1.594000000
H     1.847000000     0.513000000     0.144000000
H     0.474000000     1.548000000     0.277000000
C    -0.874000000    -1.179000000     1.168000000
H    -0.725000000    -1.073000000     2.239000000
C    -1.627000000    -2.278000000     0.817000000
H    -2.149000000    -2.898000000     1.542000000
C    -1.943000000    -2.503000000    -0.543000000
C    -2.808000000    -3.686000000    -0.961000000
O    -3.237000000    -4.581000000    -0.240000000
O    -3.187000000    -3.629000000    -2.128000000
