17
-96.30978
C     1.394000000    -2.293000000    -1.517000000
H     1.556000000    -2.789000000    -2.470000000
C     0.533000000    -1.227000000    -1.428000000
H     0.036000000    -0.955000000    -2.355000000
C     0.346000000    -0.533000000    -0.180000000
C    -0.626000000     0.575000000    -0.105000000
H    -1.199000000     0.629000000     0.823000000
H    -0.038000000     1.495000000    -0.118000000
H    -1.322000000     0.505000000    -0.943000000
C     1.200000000    -0.816000000     0.892000000
H     1.134000000    -0.253000000     1.820000000
C     2.111000000    -1.881000000     0.779000000
H     2.607000000    -2.293000000     1.654000000
C     2.169000000    -2.562000000    -0.434000000
C     3.219000000    -3.682000000    -0.498000000
O     4.199000000    -3.560000000     0.179000000
O     3.102000000    -4.639000000    -1.279000000
