17
-89.77018
C    -1.226000000    -1.088000000    -2.241000000
H    -1.195000000    -1.236000000    -3.317000000
C    -0.172000000    -0.423000000    -1.659000000
H     0.657000000    -0.091000000    -2.280000000
C    -0.350000000    -0.056000000    -0.295000000
C     0.618000000     0.832000000     0.428000000
H     0.657000000     0.749000000     1.517000000
H     1.627000000     0.576000000     0.099000000
H     0.305000000     1.853000000     0.196000000
C    -1.464000000    -0.553000000     0.344000000
H    -1.598000000    -0.266000000     1.384000000
C    -2.417000000    -1.359000000    -0.206000000
H    -3.213000000    -1.896000000     0.303000000
C    -2.413000000    -1.580000000    -1.550000000
C    -3.483000000    -2.299000000    -2.329000000
O    -4.363000000    -2.846000000    -1.770000000
O    -3.440000000    -2.294000000    -3.548000000
