17
-100.36570
C    -1.051000000    -0.738000000    -2.099000000
H    -0.970000000    -0.801000000    -3.181000000
C     0.061000000    -0.356000000    -1.371000000
H     1.023000000    -0.241000000    -1.863000000
C    -0.013000000    -0.167000000     0.017000000
C     1.073000000     0.476000000     0.787000000
H     0.622000000     0.901000000     1.686000000
H     1.884000000    -0.153000000     1.161000000
H     1.525000000     1.182000000     0.087000000
C    -1.217000000    -0.391000000     0.656000000
H    -1.241000000    -0.181000000     1.722000000
C    -2.325000000    -0.834000000    -0.046000000
H    -3.274000000    -1.092000000     0.418000000
C    -2.246000000    -0.995000000    -1.440000000
C    -3.450000000    -1.489000000    -2.238000000
O    -4.583000000    -1.652000000    -1.723000000
O    -3.248000000    -1.922000000    -3.392000000
