17
-100.39551
C    -1.378000000    -0.828000000    -2.405000000
H    -1.280000000    -1.096000000    -3.454000000
C    -0.388000000    -0.002000000    -1.746000000
H     0.409000000     0.400000000    -2.366000000
C    -0.466000000     0.199000000    -0.394000000
C     0.554000000     1.041000000     0.333000000
H     1.165000000     0.366000000     0.937000000
H     1.194000000     1.573000000    -0.374000000
H     0.048000000     1.710000000     1.032000000
C    -1.503000000    -0.435000000     0.335000000
H    -1.471000000    -0.319000000     1.416000000
C    -2.538000000    -1.097000000    -0.261000000
H    -3.364000000    -1.611000000     0.224000000
C    -2.537000000    -1.210000000    -1.696000000
C    -3.687000000    -1.885000000    -2.330000000
O    -4.760000000    -1.865000000    -1.704000000
O    -3.514000000    -2.522000000    -3.354000000
