17
-89.22114
C    -1.190000000    -1.851000000    -2.383000000
H    -0.922000000    -1.922000000    -3.434000000
C    -0.558000000    -0.902000000    -1.595000000
H     0.237000000    -0.309000000    -2.041000000
C    -0.876000000    -0.822000000    -0.262000000
C     0.138000000     0.117000000     0.470000000
H    -0.185000000     0.093000000     1.512000000
H     1.189000000    -0.125000000     0.303000000
H     0.135000000     1.126000000     0.053000000
C    -1.731000000    -1.722000000     0.302000000
H    -1.963000000    -1.701000000     1.364000000
C    -2.342000000    -2.738000000    -0.426000000
H    -2.999000000    -3.405000000     0.126000000
C    -2.149000000    -2.769000000    -1.818000000
C    -2.823000000    -3.779000000    -2.603000000
O    -3.830000000    -4.204000000    -2.084000000
O    -2.339000000    -4.099000000    -3.666000000
