17
-92.98640
C     0.042000000    -1.502000000    -1.982000000
H     0.460000000    -1.904000000    -2.901000000
C     0.590000000    -0.429000000    -1.315000000
H     1.383000000     0.124000000    -1.812000000
C     0.110000000    -0.036000000    -0.037000000
C     0.574000000     1.200000000     0.677000000
H     0.033000000     2.033000000     0.223000000
H     0.400000000     1.109000000     1.751000000
H     1.663000000     1.205000000     0.599000000
C    -0.908000000    -0.805000000     0.561000000
H    -1.359000000    -0.538000000     1.513000000
C    -1.505000000    -1.830000000    -0.142000000
H    -2.211000000    -2.488000000     0.358000000
C    -1.064000000    -2.167000000    -1.433000000
C    -1.584000000    -3.365000000    -2.149000000
O    -2.442000000    -4.167000000    -1.673000000
O    -1.215000000    -3.689000000    -3.254000000
