17
-88.39161
C    -0.640000000    -1.567000000    -1.907000000
H    -0.571000000    -1.942000000    -2.925000000
C    -0.009000000    -0.461000000    -1.372000000
H     0.589000000     0.125000000    -2.065000000
C    -0.068000000    -0.171000000    -0.039000000
C     0.794000000     0.996000000     0.529000000
H     0.414000000     1.968000000     0.208000000
H     0.950000000     1.030000000     1.610000000
H     1.817000000     0.994000000     0.148000000
C    -0.818000000    -0.987000000     0.844000000
H    -0.791000000    -0.813000000     1.917000000
C    -1.572000000    -2.011000000     0.324000000
H    -2.181000000    -2.668000000     0.939000000
C    -1.507000000    -2.353000000    -1.056000000
C    -2.259000000    -3.524000000    -1.572000000
O    -2.889000000    -4.307000000    -0.863000000
O    -2.049000000    -3.762000000    -2.689000000
