17
-89.83872
C    -1.018000000    -0.760000000    -2.662000000
H    -0.793000000    -0.953000000    -3.708000000
C    -0.101000000    -0.228000000    -1.808000000
H     0.894000000     0.017000000    -2.169000000
C    -0.353000000    -0.091000000    -0.418000000
C     0.725000000     0.392000000     0.538000000
H     1.561000000    -0.301000000     0.659000000
H     1.013000000     1.426000000     0.342000000
H     0.350000000     0.359000000     1.563000000
C    -1.583000000    -0.488000000     0.100000000
H    -1.791000000    -0.562000000     1.164000000
C    -2.536000000    -0.883000000    -0.787000000
H    -3.513000000    -1.219000000    -0.450000000
C    -2.332000000    -0.970000000    -2.208000000
C    -3.379000000    -1.556000000    -3.174000000
O    -4.358000000    -2.157000000    -2.718000000
O    -3.116000000    -1.774000000    -4.318000000
