17
-92.10149
C    -1.235000000    -0.340000000    -2.621000000
H    -1.070000000    -0.185000000    -3.685000000
C    -0.301000000     0.196000000    -1.708000000
H     0.531000000     0.767000000    -2.111000000
C    -0.459000000     0.102000000    -0.313000000
C     0.485000000     0.691000000     0.736000000
H     0.174000000     1.736000000     0.792000000
H     0.412000000     0.299000000     1.753000000
H     1.536000000     0.798000000     0.461000000
C    -1.596000000    -0.572000000     0.170000000
H    -1.837000000    -0.543000000     1.229000000
C    -2.516000000    -1.069000000    -0.742000000
H    -3.486000000    -1.445000000    -0.427000000
C    -2.341000000    -1.015000000    -2.140000000
C    -3.546000000    -1.424000000    -3.055000000
O    -4.491000000    -1.970000000    -2.608000000
O    -3.408000000    -1.387000000    -4.274000000
