201
-1254.78511
C    -4.507000000     2.854000000     1.438000000
H    -4.124000000     3.788000000     1.037000000
C    -3.865000000     2.164000000     2.492000000
C    -4.557000000     1.199000000     3.102000000
H    -4.217000000     0.595000000     3.939000000
C    -2.377000000     2.508000000     2.783000000
O    -2.181000000     3.943000000     2.600000000
H    -1.720000000     2.000000000     2.062000000
O    -2.103000000     2.062000000     4.152000000
C    -0.834000000     1.573000000     4.413000000
C    -0.738000000     0.213000000     4.558000000
H    -1.565000000    -0.470000000     4.735000000
C     0.562000000    -0.346000000     4.679000000
O     0.540000000    -1.663000000     4.687000000
C     1.704000000     0.446000000     4.649000000
C     3.106000000    -0.203000000     4.778000000
H     3.774000000     0.530000000     5.236000000
C     3.564000000    -0.755000000     3.422000000
C     4.329000000     0.075000000     2.559000000
H     4.604000000     1.059000000     2.928000000
H     2.935000000    -1.121000000     5.345000000
C     1.532000000     1.833000000     4.433000000
H     2.355000000     2.543000000     4.428000000
C     0.309000000     2.376000000     4.353000000
C     0.163000000     3.879000000     4.193000000
H     1.036000000     4.386000000     4.611000000
H    -0.745000000     4.245000000     4.677000000
C     0.206000000     4.123000000     2.737000000
C     1.419000000     4.324000000     2.030000000
H     2.339000000     4.331000000     2.610000000
C    -0.944000000     4.190000000     2.005000000
C    -0.986000000     4.320000000     0.639000000
H    -1.951000000     4.238000000     0.145000000
C     0.212000000     4.414000000    -0.014000000
O     0.183000000     4.502000000    -1.396000000
C     0.461000000     3.318000000    -2.203000000
C    -0.521000000     3.102000000    -3.408000000
C    -0.011000000     2.649000000    -4.610000000
H     1.064000000     2.526000000    -4.704000000
C    -1.884000000     3.191000000    -3.233000000
H    -2.228000000     3.509000000    -2.252000000
O     1.808000000     3.506000000    -2.738000000
H     0.566000000     2.435000000    -1.555000000
C     1.437000000     4.467000000     0.670000000
C     2.659000000     4.597000000    -0.140000000
H     3.490000000     4.942000000     0.479000000
H     2.444000000     5.436000000    -0.805000000
C     3.154000000     3.314000000    -0.815000000
C     3.998000000     2.557000000    -0.077000000
H     4.141000000     2.865000000     0.955000000
C     2.756000000     2.889000000    -2.051000000
C     3.303000000     1.708000000    -2.554000000
H     2.912000000     1.358000000    -3.506000000
C     4.199000000     0.950000000    -1.790000000
O     4.593000000    -0.338000000    -2.194000000
C     3.758000000    -1.352000000    -1.541000000
C     3.301000000    -2.301000000    -2.543000000
C     2.928000000    -1.896000000    -3.855000000
H     2.981000000    -0.845000000    -4.128000000
C     3.021000000    -3.625000000    -2.216000000
H     3.135000000    -3.929000000    -1.179000000
O     4.511000000    -1.964000000    -0.484000000
H     2.835000000    -0.972000000    -1.076000000
C     4.551000000     1.416000000    -0.569000000
C     5.470000000     0.605000000     0.388000000
H     6.064000000     1.306000000     0.978000000
H     6.242000000     0.094000000    -0.191000000
C     4.672000000    -0.301000000     1.301000000
C     4.196000000    -1.522000000     0.794000000
C     3.525000000    -2.406000000     1.674000000
H     3.187000000    -3.359000000     1.274000000
C     3.155000000    -1.984000000     2.965000000
O     2.352000000    -2.753000000     3.701000000
C     1.000000000    -2.396000000     3.443000000
H     1.002000000    -1.671000000     2.616000000
C     0.128000000    -3.629000000     3.132000000
C    -1.210000000    -3.372000000     3.080000000
H    -1.503000000    -2.403000000     3.477000000
C     0.574000000    -4.839000000     2.635000000
H     1.638000000    -5.062000000     2.629000000
C    -0.250000000    -5.701000000     2.009000000
O     0.249000000    -6.973000000     1.542000000
C    -1.602000000    -5.385000000     1.903000000
H    -2.379000000    -5.969000000     1.415000000
C    -2.105000000    -4.195000000     2.447000000
O    -3.424000000    -3.763000000     2.132000000
C    -4.293000000    -3.263000000     3.066000000
C    -4.950000000    -2.102000000     2.735000000
H    -4.829000000    -1.623000000     1.767000000
C    -4.459000000    -3.825000000     4.324000000
H    -3.921000000    -4.689000000     4.705000000
C    -5.195000000    -3.085000000     5.264000000
H    -5.391000000    -3.541000000     6.231000000
C    -5.835000000    -1.911000000     4.916000000
H    -6.328000000    -1.294000000     5.663000000
C    -5.772000000    -1.475000000     3.601000000
O    -6.393000000    -0.322000000     3.173000000
C    -5.817000000     0.839000000     2.696000000
C    -6.501000000     1.430000000     1.633000000
H    -7.469000000     1.095000000     1.268000000
C    -5.848000000     2.505000000     1.024000000
O    -6.499000000     3.137000000     0.008000000
C    -5.898000000     3.889000000    -0.958000000
C    -5.104000000     3.198000000    -1.889000000
H    -4.857000000     2.143000000    -1.806000000
C    -6.250000000     5.208000000    -1.180000000
H    -6.859000000     5.679000000    -0.412000000
C    -5.799000000     5.879000000    -2.357000000
H    -6.013000000     6.941000000    -2.446000000
C    -5.123000000     5.129000000    -3.289000000
H    -4.857000000     5.634000000    -4.214000000
C    -4.701000000     3.833000000    -3.073000000
O    -4.159000000     3.041000000    -4.070000000
C    -2.770000000     2.920000000    -4.329000000
C    -2.299000000     2.350000000    -5.474000000
H    -2.944000000     2.015000000    -6.282000000
C    -0.952000000     2.116000000    -5.540000000
O    -0.466000000     1.469000000    -6.680000000
C     0.750000000     0.802000000    -6.794000000
C     0.917000000    -0.515000000    -6.371000000
H     0.009000000    -0.941000000    -5.954000000
C     1.832000000     1.480000000    -7.391000000
H     1.649000000     2.525000000    -7.629000000
C     3.081000000     0.883000000    -7.553000000
H     3.843000000     1.454000000    -8.078000000
C     3.293000000    -0.391000000    -7.145000000
H     4.229000000    -0.892000000    -7.376000000
C     2.138000000    -1.141000000    -6.606000000
O     2.292000000    -2.462000000    -6.190000000
C     2.514000000    -2.826000000    -4.809000000
C     2.335000000    -4.110000000    -4.386000000
H     2.240000000    -4.858000000    -5.168000000
C     2.459000000    -4.520000000    -3.081000000
O     2.378000000    -5.806000000    -2.702000000
C     2.393000000    -6.386000000    -1.478000000
C     3.338000000    -7.365000000    -1.293000000
H     4.159000000    -7.583000000    -1.971000000
C     3.313000000    -8.184000000    -0.100000000
H     4.071000000    -8.958000000    -0.008000000
C     2.285000000    -7.984000000     0.828000000
H     2.294000000    -8.615000000     1.713000000
C     1.261000000    -7.060000000     0.605000000
C     1.257000000    -6.297000000    -0.580000000
H     0.459000000    -5.603000000    -0.833000000
O    -2.597000000    -6.527000000    -2.758000000
H    -2.897000000    -6.726000000    -1.872000000
H    -2.735000000    -5.585000000    -2.852000000
O    -6.577000000    -6.114000000    -1.115000000
H    -6.970000000    -5.931000000    -1.968000000
H    -6.963000000    -6.948000000    -0.847000000
O    -5.380000000    -3.334000000    -1.536000000
H    -4.738000000    -3.741000000    -2.117000000
H    -5.504000000    -3.971000000    -0.832000000
O    -4.869000000    -6.732000000    -4.628000000
H    -4.243000000    -6.735000000    -3.904000000
H    -4.343000000    -6.520000000    -5.399000000
O    -5.488000000    -3.660000000    -4.496000000
H    -4.592000000    -3.822000000    -4.200000000
H    -5.902000000    -4.523000000    -4.488000000
O    -4.113000000    -3.972000000    -8.529000000
H    -4.300000000    -3.709000000    -9.431000000
H    -4.817000000    -3.578000000    -8.014000000
O    -4.036000000    -7.657000000    -0.101000000
H    -3.632000000    -8.033000000     0.681000000
H    -4.792000000    -7.172000000     0.229000000
O    -2.887000000    -0.679000000    -5.882000000
H    -2.305000000    -0.671000000    -6.642000000
H    -2.588000000    -1.422000000    -5.358000000
O    -2.525000000     1.001000000    -0.903000000
H    -1.846000000     0.331000000    -0.983000000
H    -3.346000000     0.509000000    -0.883000000
O    -6.064000000    -2.728000000    -6.891000000
H    -5.769000000    -3.122000000    -6.070000000
H    -6.539000000    -1.942000000    -6.622000000
O    -3.173000000    -5.081000000    -5.993000000
H    -3.537000000    -4.591000000    -6.730000000
H    -2.991000000    -4.415000000    -5.330000000
O    -4.461000000    -0.667000000    -1.712000000
H    -4.478000000    -0.561000000    -2.664000000
H    -4.834000000    -1.536000000    -1.561000000
O    -7.469000000    -2.005000000    -2.541000000
H    -6.915000000    -1.419000000    -3.056000000
H    -6.906000000    -2.755000000    -2.344000000
O    -1.662000000    -5.172000000    -9.555000000
H    -1.762000000    -4.465000000   -10.192000000
H    -2.277000000    -4.952000000    -8.855000000
O    -1.442000000    -7.832000000    -4.755000000
H    -1.146000000    -7.200000000    -5.409000000
H    -1.889000000    -7.302000000    -4.095000000
O    -1.223000000    -1.516000000    -8.270000000
H    -0.670000000    -1.411000000    -9.044000000
H    -0.784000000    -2.191000000    -7.752000000
O    -7.591000000    -5.938000000    -3.559000000
H    -8.537000000    -6.083000000    -3.538000000
H    -7.260000000    -6.602000000    -4.163000000
O    -0.535000000    -3.537000000    -6.816000000
H    -1.081000000    -3.409000000    -6.040000000
H    -0.233000000    -4.443000000    -6.751000000
O    -5.465000000    -0.357000000    -4.325000000
H    -5.209000000    -1.156000000    -4.787000000
H    -4.873000000     0.315000000    -4.663000000
