201
-1238.35552
C    -4.351000000     3.249000000     1.320000000
H    -3.802000000     4.091000000     0.905000000
C    -3.630000000     2.408000000     2.224000000
C    -4.355000000     1.361000000     2.854000000
H    -3.898000000     0.783000000     3.652000000
C    -2.214000000     2.719000000     2.629000000
O    -1.838000000     4.058000000     2.211000000
H    -1.559000000     2.145000000     1.956000000
O    -1.855000000     2.429000000     4.009000000
C    -0.629000000     1.832000000     4.269000000
C    -0.654000000     0.455000000     4.441000000
H    -1.556000000    -0.124000000     4.622000000
C     0.531000000    -0.233000000     4.596000000
O     0.430000000    -1.612000000     4.709000000
C     1.759000000     0.391000000     4.565000000
C     3.057000000    -0.359000000     4.642000000
H     3.849000000     0.356000000     4.875000000
C     3.553000000    -1.076000000     3.346000000
C     4.438000000    -0.442000000     2.537000000
H     4.839000000     0.484000000     2.943000000
H     3.042000000    -1.128000000     5.416000000
C     1.737000000     1.775000000     4.299000000
H     2.655000000     2.329000000     4.117000000
C     0.593000000     2.505000000     4.139000000
C     0.656000000     3.961000000     3.910000000
H     1.640000000     4.299000000     4.243000000
H    -0.143000000     4.421000000     4.494000000
C     0.620000000     4.194000000     2.419000000
C     1.916000000     4.328000000     1.725000000
H     2.834000000     4.271000000     2.305000000
C    -0.590000000     4.277000000     1.680000000
C    -0.474000000     4.561000000     0.317000000
H    -1.388000000     4.782000000    -0.228000000
C     0.741000000     4.522000000    -0.349000000
O     0.687000000     4.483000000    -1.772000000
C     0.920000000     3.206000000    -2.350000000
C    -0.143000000     2.845000000    -3.355000000
C     0.157000000     2.049000000    -4.469000000
H     1.191000000     1.748000000    -4.620000000
C    -1.528000000     3.174000000    -3.115000000
H    -1.882000000     3.774000000    -2.281000000
O     2.340000000     3.175000000    -2.796000000
H     0.809000000     2.460000000    -1.549000000
C     1.961000000     4.527000000     0.381000000
C     3.354000000     4.481000000    -0.326000000
H     4.186000000     4.781000000     0.315000000
H     3.349000000     5.284000000    -1.066000000
C     3.834000000     3.103000000    -0.828000000
C     4.633000000     2.273000000     0.044000000
H     5.054000000     2.599000000     0.991000000
C     3.305000000     2.565000000    -1.985000000
C     3.641000000     1.341000000    -2.442000000
H     3.293000000     0.938000000    -3.390000000
C     4.468000000     0.522000000    -1.686000000
O     4.750000000    -0.806000000    -2.092000000
C     3.799000000    -1.703000000    -1.536000000
C     3.184000000    -2.642000000    -2.543000000
C     3.111000000    -2.311000000    -3.860000000
H     3.670000000    -1.420000000    -4.134000000
C     2.507000000    -3.797000000    -2.141000000
H     2.404000000    -4.001000000    -1.079000000
O     4.389000000    -2.458000000    -0.459000000
H     2.969000000    -1.173000000    -1.046000000
C     4.903000000     0.975000000    -0.441000000
C     5.713000000     0.039000000     0.473000000
H     6.286000000     0.635000000     1.186000000
H     6.433000000    -0.555000000    -0.094000000
C     4.800000000    -0.886000000     1.274000000
C     4.175000000    -2.077000000     0.797000000
C     3.281000000    -2.784000000     1.565000000
H     2.792000000    -3.697000000     1.237000000
C     2.913000000    -2.235000000     2.816000000
O     1.976000000    -2.900000000     3.569000000
C     0.650000000    -2.439000000     3.517000000
H     0.702000000    -1.753000000     2.659000000
C    -0.391000000    -3.539000000     3.277000000
C    -1.766000000    -3.230000000     3.237000000
H    -2.058000000    -2.213000000     3.486000000
C    -0.005000000    -4.767000000     2.817000000
H     1.045000000    -4.952000000     2.603000000
C    -0.943000000    -5.731000000     2.468000000
O    -0.660000000    -6.807000000     1.725000000
C    -2.357000000    -5.431000000     2.485000000
H    -3.081000000    -6.171000000     2.156000000
C    -2.741000000    -4.144000000     2.800000000
O    -4.092000000    -3.845000000     2.571000000
C    -4.733000000    -2.956000000     3.343000000
C    -5.209000000    -1.717000000     2.838000000
H    -5.117000000    -1.478000000     1.782000000
C    -4.795000000    -3.203000000     4.746000000
H    -4.405000000    -4.159000000     5.086000000
C    -5.514000000    -2.321000000     5.574000000
H    -5.583000000    -2.557000000     6.633000000
C    -6.018000000    -1.163000000     5.040000000
H    -6.574000000    -0.556000000     5.751000000
C    -5.874000000    -0.853000000     3.712000000
O    -6.504000000     0.282000000     3.222000000
C    -5.770000000     1.262000000     2.630000000
C    -6.339000000     1.970000000     1.593000000
H    -7.370000000     1.816000000     1.287000000
C    -5.643000000     3.017000000     1.002000000
O    -6.293000000     3.961000000     0.128000000
C    -5.749000000     4.426000000    -1.058000000
C    -4.973000000     3.545000000    -1.754000000
H    -4.879000000     2.492000000    -1.501000000
C    -5.893000000     5.721000000    -1.401000000
H    -6.597000000     6.284000000    -0.794000000
C    -5.237000000     6.211000000    -2.577000000
H    -5.354000000     7.225000000    -2.950000000
C    -4.550000000     5.300000000    -3.374000000
H    -4.284000000     5.463000000    -4.416000000
C    -4.346000000     4.028000000    -2.931000000
O    -3.825000000     3.116000000    -3.817000000
C    -2.513000000     2.744000000    -3.985000000
C    -2.135000000     2.013000000    -5.173000000
H    -2.942000000     1.808000000    -5.871000000
C    -0.799000000     1.629000000    -5.355000000
O    -0.465000000     0.853000000    -6.454000000
C     0.786000000     0.343000000    -6.747000000
C     1.097000000    -0.956000000    -6.215000000
H     0.450000000    -1.419000000    -5.474000000
C     1.750000000     1.032000000    -7.528000000
H     1.668000000     2.080000000    -7.808000000
C     2.857000000     0.295000000    -7.927000000
H     3.496000000     0.783000000    -8.658000000
C     3.173000000    -0.955000000    -7.446000000
H     4.099000000    -1.413000000    -7.782000000
C     2.231000000    -1.583000000    -6.610000000
O     2.571000000    -2.863000000    -6.076000000
C     2.500000000    -3.149000000    -4.744000000
C     1.869000000    -4.308000000    -4.334000000
H     1.332000000    -4.919000000    -5.055000000
C     1.745000000    -4.563000000    -2.996000000
O     0.870000000    -5.551000000    -2.539000000
C     1.127000000    -6.312000000    -1.434000000
C     2.355000000    -6.969000000    -1.222000000
H     3.202000000    -6.943000000    -1.903000000
C     2.574000000    -7.526000000     0.027000000
H     3.546000000    -7.927000000     0.302000000
C     1.527000000    -7.436000000     0.960000000
H     1.729000000    -7.666000000     2.003000000
C     0.300000000    -6.878000000     0.709000000
C     0.117000000    -6.286000000    -0.512000000
H    -0.691000000    -5.587000000    -0.713000000
O    -3.279000000    -6.691000000    -1.534000000
H    -4.048000000    -6.913000000    -1.009000000
H    -3.183000000    -5.744000000    -1.429000000
O    -5.677000000    -4.583000000     0.436000000
H    -5.124000000    -4.222000000    -0.257000000
H    -5.231000000    -4.343000000     1.248000000
O    -4.830000000    -6.893000000    -4.515000000
H    -4.179000000    -6.871000000    -3.813000000
H    -4.322000000    -7.067000000    -5.307000000
O    -6.086000000    -3.662000000    -4.141000000
H    -5.201000000    -3.836000000    -3.821000000
H    -6.461000000    -4.529000000    -4.293000000
O    -4.140000000    -4.834000000    -7.903000000
H    -3.655000000    -4.168000000    -8.389000000
H    -5.042000000    -4.514000000    -7.893000000
O    -4.607000000    -0.921000000    -4.336000000
H    -4.431000000    -0.747000000    -3.411000000
H    -4.754000000    -1.866000000    -4.378000000
O    -4.604000000    -0.090000000    -1.825000000
H    -3.869000000    -0.235000000    -1.230000000
H    -5.139000000    -0.880000000    -1.743000000
O    -2.129000000    -5.231000000    -5.642000000
H    -2.781000000    -5.065000000    -6.323000000
H    -2.383000000    -4.654000000    -4.921000000
O    -6.327000000    -2.164000000    -1.290000000
H    -7.177000000    -2.522000000    -1.031000000
H    -5.950000000    -2.833000000    -1.861000000
O    -7.906000000     0.326000000    -1.695000000
H    -7.362000000    -0.299000000    -1.215000000
H    -7.505000000     0.376000000    -2.562000000
O     0.641000000    -8.490000000    -4.128000000
H     0.329000000    -7.597000000    -3.979000000
H     0.092000000    -8.820000000    -4.840000000
O    -1.410000000    -7.963000000    -6.019000000
H    -0.986000000    -7.938000000    -6.877000000
H    -1.771000000    -7.084000000    -5.905000000
O    -8.207000000    -1.810000000    -4.753000000
H    -7.502000000    -2.373000000    -4.432000000
H    -8.998000000    -2.342000000    -4.662000000
O    -1.369000000    -1.592000000    -8.452000000
H    -0.419000000    -1.630000000    -8.347000000
H    -1.708000000    -1.552000000    -7.557000000
O    -5.088000000     0.360000000    -6.822000000
H    -4.894000000    -0.041000000    -5.975000000
H    -5.492000000    -0.343000000    -7.332000000
O    -2.317000000    -9.134000000    -1.914000000
H    -2.605000000    -8.246000000    -1.699000000
H    -3.105000000    -9.669000000    -1.825000000
O    -7.778000000    -5.923000000    -4.979000000
H    -8.272000000    -6.602000000    -5.439000000
H    -6.950000000    -6.345000000    -4.749000000
O    -2.248000000    -1.809000000    -5.697000000
H    -2.291000000    -2.541000000    -5.082000000
H    -2.794000000    -1.130000000    -5.300000000
O    -6.523000000     1.408000000    -3.920000000
H    -6.090000000     2.247000000    -4.078000000
H    -5.816000000     0.764000000    -3.954000000
