201
-1238.11600
C    -2.928000000     3.493000000     0.732000000
H    -2.114000000     4.164000000     0.467000000
C    -2.741000000     2.814000000     1.945000000
C    -3.865000000     2.080000000     2.476000000
H    -3.646000000     1.583000000     3.418000000
C    -1.407000000     2.808000000     2.654000000
O    -0.734000000     4.089000000     2.776000000
H    -0.724000000     2.164000000     2.080000000
O    -1.549000000     2.205000000     3.944000000
C    -0.634000000     1.260000000     4.380000000
C    -1.076000000    -0.063000000     4.416000000
H    -2.118000000    -0.314000000     4.234000000
C    -0.187000000    -1.109000000     4.561000000
O    -0.706000000    -2.355000000     4.594000000
C     1.171000000    -0.853000000     4.651000000
C     2.180000000    -1.964000000     4.767000000
H     3.116000000    -1.671000000     5.247000000
C     2.524000000    -2.499000000     3.409000000
C     3.716000000    -1.950000000     2.856000000
H     4.260000000    -1.169000000     3.382000000
H     1.778000000    -2.821000000     5.313000000
C     1.608000000     0.473000000     4.755000000
H     2.662000000     0.677000000     4.921000000
C     0.702000000     1.559000000     4.583000000
C     1.230000000     2.981000000     4.557000000
H     2.039000000     3.091000000     5.282000000
H     0.505000000     3.666000000     5.002000000
C     1.597000000     3.438000000     3.132000000
C     2.892000000     3.337000000     2.535000000
H     3.734000000     2.925000000     3.085000000
C     0.614000000     4.057000000     2.327000000
C     0.843000000     4.447000000     1.026000000
H     0.038000000     4.944000000     0.491000000
C     2.119000000     4.259000000     0.474000000
O     2.343000000     4.604000000    -0.864000000
C     2.244000000     3.572000000    -1.834000000
C     1.565000000     3.889000000    -3.168000000
C     1.643000000     3.081000000    -4.285000000
H     2.274000000     2.196000000    -4.296000000
C     0.759000000     5.048000000    -3.198000000
H     0.702000000     5.787000000    -2.403000000
O     3.542000000     3.022000000    -2.089000000
H     1.708000000     2.766000000    -1.311000000
C     3.156000000     3.671000000     1.261000000
C     4.536000000     3.364000000     0.633000000
H     5.215000000     3.201000000     1.473000000
H     5.017000000     4.184000000     0.095000000
C     4.417000000     2.042000000    -0.074000000
C     4.748000000     0.845000000     0.589000000
H     5.119000000     0.926000000     1.607000000
C     3.918000000     1.878000000    -1.367000000
C     4.012000000     0.639000000    -1.998000000
H     3.742000000     0.596000000    -3.050000000
C     4.325000000    -0.504000000    -1.335000000
O     4.092000000    -1.711000000    -1.995000000
C     2.977000000    -2.469000000    -1.504000000
C     2.269000000    -3.067000000    -2.645000000
C     2.179000000    -2.418000000    -3.823000000
H     2.726000000    -1.491000000    -3.972000000
C     1.391000000    -4.171000000    -2.447000000
H     1.367000000    -4.509000000    -1.414000000
O     3.516000000    -3.432000000    -0.576000000
H     2.378000000    -1.795000000    -0.873000000
C     4.701000000    -0.440000000    -0.012000000
C     5.177000000    -1.638000000     0.802000000
H     5.900000000    -1.213000000     1.502000000
H     5.761000000    -2.378000000     0.252000000
C     4.112000000    -2.346000000     1.540000000
C     3.250000000    -3.182000000     0.765000000
C     2.145000000    -3.732000000     1.397000000
H     1.532000000    -4.393000000     0.789000000
C     1.782000000    -3.403000000     2.670000000
O     0.642000000    -3.971000000     3.170000000
C    -0.507000000    -3.157000000     3.307000000
H    -0.322000000    -2.377000000     2.553000000
C    -1.809000000    -3.935000000     2.867000000
C    -3.135000000    -3.388000000     3.179000000
H    -3.104000000    -2.544000000     3.864000000
C    -1.753000000    -5.006000000     1.978000000
H    -0.837000000    -5.561000000     1.791000000
C    -2.947000000    -5.469000000     1.385000000
O    -2.917000000    -6.600000000     0.551000000
C    -4.180000000    -4.865000000     1.664000000
H    -5.015000000    -5.309000000     1.128000000
C    -4.267000000    -3.799000000     2.512000000
O    -5.493000000    -3.291000000     2.725000000
C    -5.797000000    -2.079000000     3.296000000
C    -5.727000000    -0.916000000     2.593000000
H    -5.474000000    -0.976000000     1.538000000
C    -6.229000000    -2.041000000     4.624000000
H    -6.236000000    -2.966000000     5.196000000
C    -6.536000000    -0.816000000     5.287000000
H    -6.781000000    -0.870000000     6.345000000
C    -6.620000000     0.294000000     4.479000000
H    -6.904000000     1.227000000     4.959000000
C    -6.134000000     0.272000000     3.158000000
O    -6.217000000     1.373000000     2.388000000
C    -5.059000000     1.984000000     1.821000000
C    -5.123000000     2.549000000     0.541000000
H    -5.994000000     2.290000000    -0.056000000
C    -4.115000000     3.342000000     0.016000000
O    -4.323000000     3.895000000    -1.288000000
C    -3.589000000     5.002000000    -1.629000000
C    -2.578000000     5.012000000    -2.562000000
H    -2.491000000     4.099000000    -3.145000000
C    -3.875000000     6.241000000    -0.961000000
H    -4.618000000     6.314000000    -0.170000000
C    -3.255000000     7.408000000    -1.379000000
H    -3.495000000     8.371000000    -0.937000000
C    -2.319000000     7.366000000    -2.409000000
H    -1.949000000     8.260000000    -2.905000000
C    -1.950000000     6.192000000    -2.981000000
O    -1.097000000     6.280000000    -4.128000000
C    -0.141000000     5.274000000    -4.314000000
C    -0.174000000     4.332000000    -5.354000000
H    -0.781000000     4.466000000    -6.246000000
C     0.796000000     3.306000000    -5.352000000
O     0.830000000     2.505000000    -6.423000000
C     1.588000000     1.368000000    -6.611000000
C     1.081000000     0.118000000    -6.158000000
H     0.048000000     0.095000000    -5.822000000
C     2.820000000     1.296000000    -7.255000000
H     3.361000000     2.086000000    -7.770000000
C     3.473000000     0.089000000    -7.364000000
H     4.363000000     0.036000000    -7.985000000
C     2.973000000    -1.076000000    -6.839000000
H     3.470000000    -2.004000000    -7.109000000
C     1.672000000    -1.045000000    -6.241000000
O     1.009000000    -2.198000000    -5.928000000
C     1.269000000    -2.866000000    -4.769000000
C     0.488000000    -3.974000000    -4.604000000
H    -0.137000000    -4.242000000    -5.453000000
C     0.504000000    -4.599000000    -3.445000000
O    -0.403000000    -5.586000000    -3.332000000
C    -0.559000000    -6.361000000    -2.160000000
C     0.429000000    -7.254000000    -1.793000000
H     1.366000000    -7.402000000    -2.324000000
C     0.317000000    -7.926000000    -0.619000000
H     1.141000000    -8.571000000    -0.325000000
C    -0.868000000    -7.764000000     0.137000000
H    -1.037000000    -8.225000000     1.107000000
C    -1.803000000    -6.846000000    -0.203000000
C    -1.641000000    -6.109000000    -1.340000000
H    -2.430000000    -5.489000000    -1.757000000
O    -5.660000000    -5.688000000    -1.720000000
H    -6.484000000    -5.424000000    -1.310000000
H    -5.114000000    -4.903000000    -1.685000000
O    -7.598000000    -6.025000000    -3.993000000
H    -7.047000000    -6.399000000    -3.306000000
H    -7.597000000    -5.084000000    -3.816000000
O    -9.010000000    -3.286000000    -4.487000000
H    -8.294000000    -2.910000000    -3.975000000
H    -9.762000000    -3.271000000    -3.894000000
O    -7.702000000    -4.670000000    -0.142000000
H    -8.586000000    -4.864000000    -0.453000000
H    -7.831000000    -4.054000000     0.580000000
O    -6.984000000    -2.980000000    -2.591000000
H    -7.330000000    -3.209000000    -1.728000000
H    -6.078000000    -2.719000000    -2.424000000
O    -5.517000000    -8.435000000    -0.840000000
H    -5.734000000    -7.506000000    -0.918000000
H    -4.583000000    -8.481000000    -1.044000000
O    -4.639000000    -0.089000000    -7.625000000
H    -4.731000000    -0.748000000    -8.313000000
H    -4.238000000    -0.560000000    -6.895000000
O    -2.239000000     1.192000000    -2.535000000
H    -1.504000000     0.582000000    -2.590000000
H    -2.509000000     1.159000000    -1.617000000
O    -5.680000000    -0.302000000    -3.644000000
H    -5.425000000    -0.328000000    -2.722000000
H    -6.612000000    -0.519000000    -3.641000000
O    -2.745000000    -4.907000000    -4.739000000
H    -1.853000000    -5.139000000    -4.481000000
H    -2.961000000    -4.146000000    -4.200000000
O    -8.684000000    -0.336000000    -0.865000000
H    -8.834000000    -0.185000000    -1.798000000
H    -9.479000000    -0.774000000    -0.562000000
O    -3.473000000    -1.009000000    -5.008000000
H    -3.464000000    -1.551000000    -4.219000000
H    -4.241000000    -0.448000000    -4.904000000
O    -2.452000000    -5.941000000    -7.272000000
H    -2.985000000    -5.452000000    -7.899000000
H    -2.671000000    -5.557000000    -6.422000000
O    -4.129000000    -7.236000000    -3.478000000
H    -3.715000000    -6.516000000    -3.953000000
H    -4.490000000    -6.828000000    -2.691000000
O    -2.466000000    -2.211000000    -7.562000000
H    -2.473000000    -1.996000000    -6.630000000
H    -3.269000000    -2.713000000    -7.698000000
O    -2.675000000     1.734000000    -5.338000000
H    -2.182000000     1.676000000    -4.520000000
H    -2.641000000     0.849000000    -5.702000000
O    -5.853000000    -0.816000000    -0.858000000
H    -6.781000000    -0.802000000    -0.622000000
H    -5.593000000    -1.731000000    -0.751000000
O    -5.449000000     2.213000000    -4.875000000
H    -4.505000000     2.136000000    -5.015000000
H    -5.700000000     1.383000000    -4.471000000
O    -5.372000000    -3.533000000    -6.263000000
H    -4.852000000    -3.518000000    -5.460000000
H    -5.998000000    -4.245000000    -6.129000000
