201
-1236.02417
C    -2.057000000     4.493000000     1.016000000
H    -1.194000000     4.858000000     0.465000000
C    -1.866000000     3.798000000     2.184000000
C    -3.008000000     3.344000000     2.877000000
H    -2.882000000     2.873000000     3.848000000
C    -0.480000000     3.418000000     2.720000000
O     0.446000000     4.470000000     2.512000000
H    -0.198000000     2.549000000     2.109000000
O    -0.453000000     3.028000000     4.058000000
C     0.248000000     1.816000000     4.334000000
C    -0.581000000     0.667000000     4.518000000
H    -1.631000000     0.781000000     4.776000000
C     0.043000000    -0.594000000     4.713000000
O    -0.732000000    -1.764000000     4.667000000
C     1.456000000    -0.676000000     4.658000000
C     2.183000000    -2.010000000     4.762000000
H     3.187000000    -1.827000000     5.149000000
C     2.414000000    -2.642000000     3.448000000
C     3.545000000    -2.322000000     2.665000000
H     4.267000000    -1.580000000     2.994000000
H     1.608000000    -2.718000000     5.362000000
C     2.271000000     0.451000000     4.402000000
H     3.357000000     0.491000000     4.386000000
C     1.635000000     1.732000000     4.255000000
C     2.493000000     2.934000000     4.006000000
H     3.451000000     2.718000000     4.485000000
H     2.144000000     3.856000000     4.477000000
C     2.551000000     3.288000000     2.551000000
C     3.635000000     2.719000000     1.844000000
H     4.249000000     1.955000000     2.314000000
C     1.603000000     4.032000000     1.847000000
C     1.701000000     4.326000000     0.497000000
H     0.937000000     4.907000000    -0.013000000
C     2.741000000     3.727000000    -0.190000000
O     2.674000000     3.828000000    -1.558000000
C     2.384000000     2.625000000    -2.387000000
C     1.418000000     2.954000000    -3.626000000
C     1.071000000     1.918000000    -4.540000000
H     1.605000000     0.972000000    -4.539000000
C     0.750000000     4.197000000    -3.641000000
H     0.928000000     4.964000000    -2.892000000
O     3.545000000     1.914000000    -2.787000000
H     1.871000000     1.880000000    -1.761000000
C     3.793000000     3.042000000     0.485000000
C     4.958000000     2.494000000    -0.238000000
H     5.802000000     2.466000000     0.454000000
H     5.193000000     3.158000000    -1.073000000
C     4.622000000     1.029000000    -0.757000000
C     4.962000000    -0.105000000     0.050000000
H     5.379000000     0.001000000     1.048000000
C     4.000000000     0.846000000    -1.987000000
C     3.607000000    -0.466000000    -2.312000000
H     3.026000000    -0.507000000    -3.229000000
C     4.058000000    -1.585000000    -1.602000000
O     3.610000000    -2.784000000    -2.024000000
C     2.309000000    -3.170000000    -1.447000000
C     1.398000000    -3.791000000    -2.538000000
C     1.399000000    -3.321000000    -3.874000000
H     2.048000000    -2.494000000    -4.150000000
C     0.706000000    -5.007000000    -2.272000000
H     0.763000000    -5.496000000    -1.303000000
O     2.658000000    -4.119000000    -0.440000000
H     1.810000000    -2.310000000    -0.977000000
C     4.736000000    -1.337000000    -0.403000000
C     4.913000000    -2.461000000     0.544000000
H     5.808000000    -2.347000000     1.159000000
H     5.053000000    -3.367000000    -0.050000000
C     3.697000000    -2.812000000     1.411000000
C     2.752000000    -3.654000000     0.875000000
C     1.611000000    -3.917000000     1.618000000
H     0.811000000    -4.505000000     1.176000000
C     1.412000000    -3.405000000     2.845000000
O     0.161000000    -3.607000000     3.433000000
C    -0.807000000    -2.466000000     3.364000000
H    -0.361000000    -1.796000000     2.614000000
C    -2.252000000    -2.887000000     2.905000000
C    -3.318000000    -2.281000000     3.505000000
H    -3.233000000    -1.540000000     4.296000000
C    -2.536000000    -3.805000000     1.944000000
H    -1.673000000    -4.236000000     1.444000000
C    -3.861000000    -4.179000000     1.573000000
O    -4.139000000    -5.036000000     0.504000000
C    -4.935000000    -3.577000000     2.270000000
H    -5.978000000    -3.784000000     2.047000000
C    -4.653000000    -2.559000000     3.156000000
O    -5.654000000    -1.834000000     3.755000000
C    -5.478000000    -0.505000000     4.278000000
C    -5.464000000     0.570000000     3.442000000
H    -5.542000000     0.458000000     2.364000000
C    -5.545000000    -0.379000000     5.651000000
H    -5.581000000    -1.194000000     6.369000000
C    -5.381000000     0.925000000     6.224000000
H    -5.451000000     1.024000000     7.305000000
C    -5.245000000     2.051000000     5.379000000
H    -5.216000000     3.086000000     5.709000000
C    -5.379000000     1.864000000     3.965000000
O    -5.373000000     2.957000000     3.079000000
C    -4.247000000     3.437000000     2.368000000
C    -4.457000000     4.104000000     1.184000000
H    -5.440000000     4.236000000     0.740000000
C    -3.404000000     4.672000000     0.501000000
O    -3.618000000     5.265000000    -0.754000000
C    -2.750000000     5.994000000    -1.499000000
C    -2.273000000     5.458000000    -2.667000000
H    -2.638000000     4.497000000    -3.021000000
C    -2.252000000     7.232000000    -0.987000000
H    -2.581000000     7.637000000    -0.033000000
C    -1.220000000     7.834000000    -1.711000000
H    -0.788000000     8.770000000    -1.366000000
C    -0.819000000     7.294000000    -2.915000000
H    -0.009000000     7.777000000    -3.454000000
C    -1.350000000     6.157000000    -3.484000000
O    -0.748000000     5.663000000    -4.669000000
C    -0.136000000     4.483000000    -4.661000000
C    -0.389000000     3.512000000    -5.638000000
H    -1.076000000     3.761000000    -6.442000000
C     0.093000000     2.196000000    -5.511000000
O    -0.205000000     1.286000000    -6.492000000
C     0.473000000     0.163000000    -6.873000000
C     0.238000000    -1.158000000    -6.312000000
H    -0.616000000    -1.321000000    -5.660000000
C     1.626000000     0.234000000    -7.659000000
H     1.932000000     1.252000000    -7.888000000
C     2.473000000    -0.819000000    -7.900000000
H     3.438000000    -0.694000000    -8.385000000
C     2.144000000    -2.103000000    -7.440000000
H     2.735000000    -2.987000000    -7.664000000
C     1.021000000    -2.239000000    -6.662000000
O     0.654000000    -3.548000000    -6.244000000
C     0.688000000    -4.001000000    -4.949000000
C    -0.069000000    -5.113000000    -4.577000000
H    -0.784000000    -5.530000000    -5.282000000
C    -0.131000000    -5.598000000    -3.230000000
O    -1.000000000    -6.623000000    -2.848000000
C    -1.548000000    -6.710000000    -1.567000000
C    -1.315000000    -7.841000000    -0.832000000
H    -0.629000000    -8.604000000    -1.192000000
C    -2.024000000    -7.996000000     0.381000000
H    -1.979000000    -8.951000000     0.897000000
C    -2.843000000    -7.010000000     0.867000000
H    -3.499000000    -7.166000000     1.719000000
C    -3.106000000    -5.922000000     0.086000000
C    -2.436000000    -5.743000000    -1.112000000
H    -2.500000000    -4.867000000    -1.752000000
O    -7.251000000    -0.606000000    -6.178000000
H    -7.131000000    -0.806000000    -5.250000000
H    -6.894000000     0.276000000    -6.281000000
O    -3.646000000     1.971000000    -3.779000000
H    -2.841000000     1.922000000    -3.262000000
H    -3.759000000     1.088000000    -4.130000000
O    -8.626000000     0.825000000    -3.117000000
H    -7.790000000     0.444000000    -2.849000000
H    -8.970000000     1.231000000    -2.322000000
O    -5.373000000    -7.480000000    -1.483000000
H    -5.256000000    -7.087000000    -2.348000000
H    -4.498000000    -7.776000000    -1.234000000
O    -4.827000000    -2.003000000    -6.818000000
H    -5.710000000    -1.634000000    -6.796000000
H    -4.694000000    -2.251000000    -7.733000000
O    -9.924000000    -1.679000000     0.690000000
H    -9.114000000    -1.470000000     0.224000000
H    -9.929000000    -2.634000000     0.745000000
O    -9.158000000    -5.333000000    -2.576000000
H    -8.295000000    -5.113000000    -2.926000000
H    -9.025000000    -6.159000000    -2.111000000
O    -6.165000000    -4.255000000    -1.840000000
H    -5.881000000    -4.924000000    -1.218000000
H    -5.495000000    -3.574000000    -1.783000000
O    -6.476000000    -2.288000000    -3.838000000
H    -5.540000000    -2.385000000    -4.015000000
H    -6.559000000    -2.442000000    -2.897000000
O    -6.898000000    -5.291000000    -4.102000000
H    -6.832000000    -4.839000000    -4.943000000
H    -6.330000000    -4.790000000    -3.516000000
O    -3.150000000    -3.640000000    -5.657000000
H    -3.779000000    -3.014000000    -6.015000000
H    -3.084000000    -3.409000000    -4.730000000
O    -3.576000000    -0.558000000    -4.970000000
H    -3.922000000    -0.902000000    -5.793000000
H    -3.591000000    -1.305000000    -4.372000000
O    -3.875000000    -6.199000000    -4.658000000
H    -4.506000000    -6.307000000    -5.370000000
H    -3.230000000    -5.581000000    -5.001000000
O    -6.794000000     1.449000000     0.377000000
H    -6.666000000     1.063000000    -0.489000000
H    -6.385000000     2.313000000     0.317000000
O    -7.354000000    -2.153000000    -0.196000000
H    -6.863000000    -2.780000000    -0.729000000
H    -6.716000000    -1.473000000     0.021000000
O    -9.782000000    -2.153000000    -4.070000000
H    -9.321000000    -2.990000000    -4.026000000
H    -9.098000000    -1.496000000    -3.942000000
O    -1.766000000     2.164000000    -1.869000000
H    -2.383000000     2.491000000    -1.215000000
H    -1.600000000     1.258000000    -1.611000000
O    -5.821000000     1.970000000    -5.746000000
H    -4.967000000     2.085000000    -6.164000000
H    -5.645000000     2.069000000    -4.811000000
O    -6.058000000     0.245000000    -2.195000000
H    -5.704000000    -0.581000000    -1.865000000
H    -5.655000000     0.352000000    -3.057000000
