201
-1251.68602
C    -2.084000000     4.745000000     1.359000000
H    -1.230000000     5.303000000     0.984000000
C    -1.837000000     3.698000000     2.198000000
C    -2.909000000     2.932000000     2.635000000
H    -2.720000000     2.110000000     3.321000000
C    -0.452000000     3.384000000     2.671000000
O     0.592000000     4.444000000     2.381000000
H    -0.128000000     2.511000000     2.085000000
O    -0.265000000     3.042000000     4.041000000
C     0.482000000     1.867000000     4.305000000
C    -0.171000000     0.677000000     4.623000000
H    -1.235000000     0.716000000     4.844000000
C     0.478000000    -0.555000000     4.689000000
O    -0.182000000    -1.755000000     4.759000000
C     1.905000000    -0.530000000     4.439000000
C     2.740000000    -1.844000000     4.530000000
H     3.744000000    -1.708000000     4.937000000
C     2.846000000    -2.494000000     3.132000000
C     3.969000000    -2.343000000     2.281000000
H     4.740000000    -1.675000000     2.657000000
H     2.301000000    -2.526000000     5.262000000
C     2.561000000     0.684000000     4.260000000
H     3.612000000     0.658000000     3.984000000
C     1.883000000     1.946000000     4.144000000
C     2.696000000     3.182000000     3.790000000
H     3.730000000     3.150000000     4.139000000
H     2.316000000     4.004000000     4.399000000
C     2.778000000     3.443000000     2.267000000
C     3.870000000     3.067000000     1.471000000
H     4.771000000     2.630000000     1.894000000
C     1.697000000     4.071000000     1.673000000
C     1.638000000     4.280000000     0.313000000
H     0.803000000     4.705000000    -0.239000000
C     2.648000000     3.781000000    -0.485000000
O     2.414000000     3.783000000    -1.807000000
C     2.056000000     2.551000000    -2.425000000
C     0.974000000     2.914000000    -3.388000000
C     0.534000000     1.919000000    -4.251000000
H     1.038000000     0.957000000    -4.208000000
C     0.291000000     4.151000000    -3.443000000
H     0.663000000     5.003000000    -2.881000000
O     3.214000000     2.037000000    -3.120000000
H     1.746000000     1.810000000    -1.673000000
C     3.760000000     3.169000000     0.080000000
C     4.928000000     2.603000000    -0.740000000
H     5.871000000     2.583000000    -0.189000000
H     4.990000000     3.298000000    -1.579000000
C     4.563000000     1.204000000    -1.227000000
C     5.050000000     0.062000000    -0.515000000
H     5.590000000     0.142000000     0.425000000
C     3.826000000     0.977000000    -2.442000000
C     3.503000000    -0.291000000    -2.742000000
H     2.994000000    -0.432000000    -3.692000000
C     3.934000000    -1.428000000    -2.059000000
O     3.602000000    -2.732000000    -2.474000000
C     2.495000000    -3.244000000    -1.869000000
C     1.474000000    -3.884000000    -2.793000000
C     1.237000000    -3.446000000    -4.107000000
H     1.800000000    -2.644000000    -4.578000000
C     0.662000000    -4.874000000    -2.299000000
H     0.782000000    -5.195000000    -1.267000000
O     2.877000000    -4.170000000    -0.752000000
H     1.914000000    -2.450000000    -1.377000000
C     4.626000000    -1.257000000    -0.895000000
C     5.100000000    -2.452000000    -0.015000000
H     6.065000000    -2.142000000     0.391000000
H     5.292000000    -3.359000000    -0.592000000
C     4.048000000    -2.859000000     1.019000000
C     2.962000000    -3.599000000     0.559000000
C     1.820000000    -3.807000000     1.376000000
H     0.960000000    -4.326000000     0.959000000
C     1.763000000    -3.194000000     2.606000000
O     0.668000000    -3.482000000     3.423000000
C    -0.434000000    -2.565000000     3.570000000
H    -0.394000000    -1.830000000     2.753000000
C    -1.832000000    -3.278000000     3.527000000
C    -2.953000000    -2.546000000     3.959000000
H    -2.815000000    -1.579000000     4.436000000
C    -2.003000000    -4.418000000     2.852000000
H    -1.089000000    -4.890000000     2.501000000
C    -3.302000000    -4.929000000     2.513000000
O    -3.587000000    -6.060000000     1.740000000
C    -4.358000000    -4.109000000     2.872000000
H    -5.335000000    -4.304000000     2.436000000
C    -4.236000000    -2.952000000     3.590000000
O    -5.472000000    -2.240000000     3.797000000
C    -5.422000000    -0.899000000     4.191000000
C    -5.285000000     0.074000000     3.168000000
H    -5.280000000    -0.233000000     2.125000000
C    -5.496000000    -0.590000000     5.555000000
H    -5.653000000    -1.414000000     6.247000000
C    -5.609000000     0.785000000     5.848000000
H    -5.762000000     1.177000000     6.850000000
C    -5.526000000     1.742000000     4.870000000
H    -5.375000000     2.774000000     5.177000000
C    -5.301000000     1.441000000     3.538000000
O    -5.268000000     2.299000000     2.510000000
C    -4.232000000     3.206000000     2.224000000
C    -4.423000000     4.194000000     1.264000000
H    -5.411000000     4.354000000     0.841000000
C    -3.337000000     4.971000000     0.860000000
O    -3.572000000     5.942000000    -0.098000000
C    -2.814000000     6.455000000    -1.032000000
C    -2.285000000     5.642000000    -2.094000000
H    -2.547000000     4.587000000    -2.090000000
C    -2.455000000     7.823000000    -0.917000000
H    -2.835000000     8.441000000    -0.107000000
C    -1.676000000     8.375000000    -1.916000000
H    -1.530000000     9.453000000    -1.933000000
C    -1.259000000     7.669000000    -3.002000000
H    -0.818000000     8.065000000    -3.913000000
C    -1.706000000     6.315000000    -3.147000000
O    -1.425000000     5.608000000    -4.297000000
C    -0.748000000     4.410000000    -4.296000000
C    -1.261000000     3.363000000    -5.053000000
H    -2.110000000     3.571000000    -5.699000000
C    -0.623000000     2.147000000    -5.052000000
O    -1.113000000     1.104000000    -5.889000000
C    -0.333000000     0.054000000    -6.347000000
C    -0.519000000    -1.242000000    -5.844000000
H    -1.204000000    -1.553000000    -5.059000000
C     0.542000000     0.304000000    -7.389000000
H     0.609000000     1.303000000    -7.812000000
C     1.366000000    -0.696000000    -7.941000000
H     2.137000000    -0.438000000    -8.663000000
C     1.142000000    -1.955000000    -7.467000000
H     1.785000000    -2.705000000    -7.921000000
C     0.200000000    -2.303000000    -6.498000000
O    -0.013000000    -3.598000000    -6.141000000
C     0.265000000    -4.046000000    -4.862000000
C    -0.553000000    -5.008000000    -4.329000000
H    -1.458000000    -5.333000000    -4.836000000
C    -0.395000000    -5.343000000    -3.026000000
O    -1.433000000    -6.170000000    -2.493000000
C    -1.443000000    -6.614000000    -1.198000000
C    -0.502000000    -7.499000000    -0.687000000
H     0.323000000    -7.812000000    -1.322000000
C    -0.618000000    -7.959000000     0.642000000
H     0.059000000    -8.713000000     1.036000000
C    -1.679000000    -7.512000000     1.451000000
H    -1.869000000    -7.863000000     2.461000000
C    -2.545000000    -6.533000000     0.975000000
C    -2.439000000    -6.099000000    -0.392000000
H    -3.093000000    -5.302000000    -0.736000000
O    -5.914000000    -1.104000000    -6.296000000
H    -5.525000000    -0.422000000    -5.747000000
H    -6.620000000    -1.467000000    -5.761000000
O    -3.866000000     1.796000000    -3.039000000
H    -4.572000000     2.322000000    -3.415000000
H    -4.087000000     0.895000000    -3.274000000
O    -5.766000000    -6.739000000    -1.539000000
H    -5.595000000    -5.988000000    -2.107000000
H    -5.498000000    -7.498000000    -2.057000000
O    -9.987000000     0.902000000    -0.117000000
H    -9.120000000     0.885000000     0.288000000
H   -10.565000000     1.237000000     0.568000000
O    -6.394000000     0.300000000    -3.352000000
H    -7.089000000     0.333000000    -2.695000000
H    -5.753000000    -0.313000000    -2.991000000
O    -6.365000000     2.208000000    -1.075000000
H    -5.943000000     1.524000000    -1.594000000
H    -6.176000000     3.019000000    -1.547000000
O    -8.392000000    -1.410000000     3.267000000
H    -8.591000000    -1.839000000     2.434000000
H    -7.675000000    -0.810000000     3.062000000
O    -5.412000000    -4.070000000    -5.925000000
H    -6.104000000    -4.131000000    -6.584000000
H    -4.893000000    -3.312000000    -6.194000000
O    -8.204000000    -5.879000000     2.372000000
H    -8.841000000    -6.367000000     1.851000000
H    -7.516000000    -5.643000000     1.750000000
O    -6.663000000    -3.373000000     0.734000000
H    -6.109000000    -4.100000000     0.449000000
H    -6.113000000    -2.597000000     0.626000000
O    -7.328000000    -2.233000000    -1.955000000
H    -6.371000000    -2.251000000    -1.999000000
H    -7.560000000    -3.026000000    -1.471000000
O    -8.344000000    -4.942000000    -4.549000000
H    -8.459000000    -4.853000000    -5.495000000
H    -7.984000000    -4.100000000    -4.270000000
O    -5.298000000    -4.504000000    -3.189000000
H    -5.157000000    -4.289000000    -4.112000000
H    -5.028000000    -3.716000000    -2.717000000
O    -3.702000000    -0.825000000    -4.081000000
H    -3.499000000    -1.305000000    -4.884000000
H    -3.948000000    -1.503000000    -3.452000000
O    -7.924000000    -2.170000000    -4.836000000
H    -8.761000000    -1.751000000    -4.635000000
H    -7.381000000    -2.001000000    -4.065000000
O    -9.394000000    -2.404000000     0.990000000
H    -8.636000000    -2.969000000     0.836000000
H   -10.041000000    -2.691000000     0.346000000
O    -9.343000000    -0.380000000    -2.330000000
H    -8.808000000    -1.138000000    -2.095000000
H    -9.678000000    -0.055000000    -1.494000000
O    -1.265000000     2.387000000    -1.067000000
H    -1.606000000     2.332000000    -1.959000000
H    -1.652000000     1.636000000    -0.616000000
O    -7.351000000     0.236000000     0.680000000
H    -6.898000000    -0.501000000     0.272000000
H    -7.106000000     0.993000000     0.147000000
