201
-1237.60023
C    -3.246000000     3.263000000     2.558000000
H    -2.540000000     3.997000000     2.178000000
C    -2.807000000     2.354000000     3.528000000
C    -3.652000000     1.397000000     4.084000000
H    -3.323000000     0.563000000     4.699000000
C    -1.299000000     2.211000000     3.638000000
O    -0.730000000     3.533000000     3.817000000
H    -0.851000000     1.856000000     2.699000000
O    -0.945000000     1.415000000     4.777000000
C     0.057000000     0.456000000     4.627000000
C    -0.382000000    -0.815000000     4.247000000
H    -1.416000000    -1.144000000     4.182000000
C     0.617000000    -1.733000000     3.904000000
O     0.154000000    -3.006000000     3.520000000
C     1.967000000    -1.476000000     3.999000000
C     3.071000000    -2.506000000     3.717000000
H     4.006000000    -2.138000000     4.144000000
C     3.329000000    -2.722000000     2.227000000
C     4.205000000    -1.902000000     1.543000000
H     4.633000000    -1.046000000     2.060000000
H     2.843000000    -3.495000000     4.120000000
C     2.346000000    -0.181000000     4.390000000
H     3.390000000     0.114000000     4.324000000
C     1.368000000     0.787000000     4.699000000
C     1.805000000     2.226000000     4.937000000
H     2.767000000     2.273000000     5.452000000
H     1.157000000     2.647000000     5.709000000
C     1.711000000     3.047000000     3.681000000
C     2.895000000     3.052000000     2.914000000
H     3.807000000     2.653000000     3.351000000
C     0.556000000     3.682000000     3.172000000
C     0.598000000     4.302000000     1.939000000
H    -0.288000000     4.792000000     1.543000000
C     1.717000000     4.233000000     1.125000000
O     1.657000000     4.601000000    -0.163000000
C     1.524000000     3.542000000    -1.156000000
C     0.394000000     3.725000000    -2.193000000
C     0.580000000     3.461000000    -3.545000000
H     1.399000000     2.878000000    -3.959000000
C    -0.791000000     4.361000000    -1.761000000
H    -1.033000000     4.714000000    -0.762000000
O     2.814000000     3.588000000    -1.856000000
H     1.465000000     2.562000000    -0.658000000
C     2.874000000     3.598000000     1.619000000
C     4.112000000     3.490000000     0.750000000
H     4.935000000     3.263000000     1.430000000
H     4.322000000     4.469000000     0.316000000
C     4.113000000     2.297000000    -0.224000000
C     4.775000000     1.160000000     0.115000000
H     5.196000000     1.092000000     1.115000000
C     3.633000000     2.541000000    -1.521000000
C     3.720000000     1.526000000    -2.455000000
H     3.284000000     1.732000000    -3.429000000
C     4.241000000     0.286000000    -2.041000000
O     4.101000000    -0.804000000    -2.924000000
C     3.211000000    -1.851000000    -2.476000000
C     2.244000000    -2.396000000    -3.597000000
C     1.768000000    -1.497000000    -4.536000000
H     2.187000000    -0.498000000    -4.454000000
C     1.725000000    -3.754000000    -3.707000000
H     2.080000000    -4.462000000    -2.963000000
O     3.799000000    -2.966000000    -1.803000000
H     2.357000000    -1.508000000    -1.874000000
C     4.875000000     0.104000000    -0.804000000
C     5.473000000    -1.202000000    -0.390000000
H     6.278000000    -0.998000000     0.319000000
H     5.886000000    -1.739000000    -1.246000000
C     4.423000000    -2.108000000     0.237000000
C     3.668000000    -2.995000000    -0.506000000
C     2.786000000    -3.842000000     0.073000000
H     2.282000000    -4.586000000    -0.539000000
C     2.543000000    -3.647000000     1.431000000
O     1.491000000    -4.289000000     2.062000000
C     0.267000000    -3.485000000     2.214000000
H     0.432000000    -2.573000000     1.623000000
C    -1.022000000    -4.127000000     1.722000000
C    -2.231000000    -3.643000000     2.239000000
H    -2.268000000    -2.856000000     2.987000000
C    -1.035000000    -5.097000000     0.735000000
H    -0.119000000    -5.469000000     0.284000000
C    -2.242000000    -5.483000000     0.262000000
O    -2.261000000    -6.490000000    -0.685000000
C    -3.454000000    -4.927000000     0.673000000
H    -4.355000000    -5.315000000     0.203000000
C    -3.441000000    -4.065000000     1.698000000
O    -4.644000000    -3.562000000     2.162000000
C    -4.860000000    -2.811000000     3.281000000
C    -5.207000000    -1.463000000     3.182000000
H    -5.091000000    -0.946000000     2.233000000
C    -4.956000000    -3.481000000     4.497000000
H    -4.633000000    -4.509000000     4.637000000
C    -5.489000000    -2.801000000     5.599000000
H    -5.599000000    -3.309000000     6.554000000
C    -5.902000000    -1.469000000     5.436000000
H    -6.602000000    -0.971000000     6.102000000
C    -5.632000000    -0.742000000     4.326000000
O    -5.882000000     0.565000000     4.260000000
C    -5.015000000     1.463000000     3.710000000
C    -5.503000000     2.456000000     2.851000000
H    -6.561000000     2.578000000     2.633000000
C    -4.586000000     3.399000000     2.350000000
O    -5.089000000     4.294000000     1.462000000
C    -4.388000000     5.252000000     0.831000000
C    -4.091000000     5.092000000    -0.503000000
H    -4.188000000     4.100000000    -0.936000000
C    -4.155000000     6.516000000     1.417000000
H    -4.468000000     6.689000000     2.444000000
C    -3.539000000     7.525000000     0.687000000
H    -3.294000000     8.528000000     1.027000000
C    -3.098000000     7.279000000    -0.608000000
H    -2.552000000     8.030000000    -1.174000000
C    -3.287000000     6.008000000    -1.217000000
O    -2.780000000     5.683000000    -2.452000000
C    -1.721000000     4.812000000    -2.705000000
C    -1.482000000     4.580000000    -4.065000000
H    -2.149000000     4.936000000    -4.847000000
C    -0.354000000     3.857000000    -4.473000000
O    -0.216000000     3.693000000    -5.805000000
C     0.498000000     2.685000000    -6.386000000
C     0.277000000     1.336000000    -6.074000000
H    -0.551000000     1.121000000    -5.402000000
C     1.477000000     3.010000000    -7.313000000
H     1.607000000     4.059000000    -7.566000000
C     2.220000000     2.034000000    -7.912000000
H     2.915000000     2.326000000    -8.695000000
C     1.980000000     0.703000000    -7.618000000
H     2.627000000    -0.040000000    -8.076000000
C     0.960000000     0.323000000    -6.741000000
O     0.615000000    -1.033000000    -6.716000000
C     0.960000000    -1.915000000    -5.620000000
C     0.495000000    -3.259000000    -5.631000000
H    -0.241000000    -3.520000000    -6.387000000
C     0.766000000    -4.174000000    -4.667000000
O     0.101000000    -5.323000000    -4.697000000
C    -0.037000000    -6.135000000    -3.560000000
C     0.612000000    -7.385000000    -3.516000000
H     1.401000000    -7.642000000    -4.219000000
C     0.364000000    -8.246000000    -2.421000000
H     0.937000000    -9.159000000    -2.281000000
C    -0.539000000    -7.958000000    -1.440000000
H    -0.670000000    -8.602000000    -0.574000000
C    -1.253000000    -6.732000000    -1.566000000
C    -1.093000000    -5.876000000    -2.633000000
H    -1.583000000    -4.913000000    -2.511000000
O    -4.630000000     2.952000000    -3.545000000
H    -5.108000000     2.324000000    -4.088000000
H    -3.795000000     2.522000000    -3.361000000
O    -8.414000000    -3.929000000    -5.472000000
H    -8.121000000    -4.515000000    -6.170000000
H    -7.709000000    -3.953000000    -4.826000000
O    -2.575000000     0.718000000    -3.687000000
H    -2.105000000    -0.043000000    -3.347000000
H    -3.251000000     0.348000000    -4.255000000
O    -4.206000000    -5.257000000    -5.053000000
H    -4.397000000    -5.727000000    -4.241000000
H    -4.787000000    -5.655000000    -5.702000000
O    -8.748000000    -4.141000000    -0.932000000
H    -7.907000000    -3.727000000    -0.740000000
H    -8.557000000    -5.079000000    -0.946000000
O    -2.730000000    -2.950000000    -5.030000000
H    -3.441000000    -2.652000000    -4.462000000
H    -2.950000000    -3.859000000    -5.233000000
O    -9.025000000     1.629000000     1.120000000
H    -8.071000000     1.706000000     1.157000000
H    -9.291000000     1.500000000     2.030000000
O    -6.993000000     2.276000000    -1.965000000
H    -6.178000000     1.968000000    -2.361000000
H    -7.673000000     1.733000000    -2.364000000
O    -6.230000000    -3.751000000    -3.356000000
H    -5.959000000    -4.411000000    -2.718000000
H    -5.609000000    -3.032000000    -3.235000000
O    -7.515000000    -1.033000000    -2.896000000
H    -7.433000000    -1.935000000    -3.206000000
H    -6.858000000    -0.957000000    -2.204000000
O    -4.106000000     0.010000000    -6.927000000
H    -3.842000000     0.857000000    -7.286000000
H    -4.874000000    -0.240000000    -7.442000000
O    -6.301000000    -3.132000000     0.041000000
H    -5.840000000    -2.494000000    -0.504000000
H    -5.657000000    -3.394000000     0.698000000
O    -9.697000000    -1.480000000     0.406000000
H    -9.434000000    -2.293000000    -0.025000000
H    -8.883000000    -0.985000000     0.499000000
O    -9.218000000     1.025000000    -4.186000000
H    -9.100000000     0.258000000    -3.626000000
H    -8.384000000     1.116000000    -4.647000000
O    -6.231000000    -2.104000000    -6.174000000
H    -6.235000000    -3.061000000    -6.140000000
H    -5.748000000    -1.838000000    -5.392000000
O    -5.613000000    -6.103000000    -2.059000000
H    -5.511000000    -6.995000000    -2.391000000
H    -6.100000000    -6.205000000    -1.242000000
O    -2.194000000    -2.151000000    -7.443000000
H    -2.703000000    -2.295000000    -6.646000000
H    -2.272000000    -1.212000000    -7.611000000
O    -6.081000000     0.542000000    -4.678000000
H    -6.136000000    -0.235000000    -4.121000000
H    -6.478000000     0.272000000    -5.506000000
O    -6.646000000     0.623000000     0.290000000
H    -5.951000000     0.050000000    -0.033000000
H    -6.758000000     1.277000000    -0.400000000
