201
-1236.57409
C    -3.320000000     3.117000000     2.287000000
H    -2.574000000     3.577000000     1.644000000
C    -2.907000000     2.081000000     3.201000000
C    -3.848000000     1.180000000     3.650000000
H    -3.611000000     0.347000000     4.307000000
C    -1.446000000     1.948000000     3.538000000
O    -0.799000000     3.265000000     3.780000000
H    -0.995000000     1.473000000     2.654000000
O    -1.389000000     1.234000000     4.790000000
C    -0.462000000     0.258000000     4.706000000
C    -0.846000000    -1.022000000     4.381000000
H    -1.863000000    -1.229000000     4.060000000
C     0.080000000    -2.070000000     4.211000000
O    -0.385000000    -3.223000000     3.648000000
C     1.431000000    -1.766000000     4.351000000
C     2.537000000    -2.776000000     4.099000000
H     3.390000000    -2.461000000     4.702000000
C     2.866000000    -2.829000000     2.639000000
C     4.004000000    -2.082000000     2.189000000
H     4.673000000    -1.500000000     2.818000000
H     2.289000000    -3.751000000     4.523000000
C     1.794000000    -0.449000000     4.689000000
H     2.827000000    -0.117000000     4.616000000
C     0.855000000     0.556000000     4.917000000
C     1.327000000     1.999000000     5.146000000
H     2.293000000     1.995000000     5.655000000
H     0.671000000     2.572000000     5.804000000
C     1.592000000     2.751000000     3.876000000
C     2.856000000     2.767000000     3.275000000
H     3.685000000     2.334000000     3.829000000
C     0.494000000     3.348000000     3.283000000
C     0.671000000     4.040000000     2.082000000
H    -0.149000000     4.661000000     1.731000000
C     1.915000000     3.985000000     1.451000000
O     1.907000000     4.574000000     0.183000000
C     1.878000000     3.657000000    -0.941000000
C     1.040000000     4.154000000    -2.095000000
C     1.494000000     4.138000000    -3.439000000
H     2.445000000     3.736000000    -3.778000000
C    -0.227000000     4.692000000    -1.826000000
H    -0.537000000     4.779000000    -0.788000000
O     3.304000000     3.579000000    -1.338000000
H     1.443000000     2.728000000    -0.544000000
C     3.061000000     3.414000000     2.019000000
C     4.407000000     3.431000000     1.298000000
H     5.218000000     3.403000000     2.029000000
H     4.744000000     4.352000000     0.818000000
C     4.526000000     2.353000000     0.318000000
C     5.120000000     1.092000000     0.637000000
H     5.596000000     0.931000000     1.601000000
C     3.980000000     2.475000000    -0.977000000
C     3.961000000     1.464000000    -1.915000000
H     3.642000000     1.564000000    -2.949000000
C     4.421000000     0.202000000    -1.559000000
O     4.294000000    -0.817000000    -2.508000000
C     3.250000000    -1.743000000    -2.164000000
C     2.343000000    -2.125000000    -3.271000000
C     1.874000000    -1.185000000    -4.170000000
H     2.204000000    -0.152000000    -4.097000000
C     1.899000000    -3.450000000    -3.495000000
H     2.338000000    -4.245000000    -2.897000000
O     3.766000000    -2.870000000    -1.341000000
H     2.574000000    -1.186000000    -1.499000000
C     5.057000000     0.021000000    -0.312000000
C     5.463000000    -1.423000000     0.159000000
H     6.334000000    -1.413000000     0.817000000
H     5.888000000    -1.946000000    -0.701000000
C     4.296000000    -2.090000000     0.808000000
C     3.468000000    -2.809000000    -0.050000000
C     2.434000000    -3.542000000     0.388000000
H     1.800000000    -4.052000000    -0.332000000
C     2.106000000    -3.646000000     1.733000000
O     0.879000000    -4.316000000     2.073000000
C    -0.264000000    -3.417000000     2.228000000
H     0.023000000    -2.463000000     1.762000000
C    -1.453000000    -3.999000000     1.490000000
C    -2.751000000    -3.449000000     1.592000000
H    -2.979000000    -2.534000000     2.132000000
C    -1.339000000    -4.978000000     0.494000000
H    -0.316000000    -5.258000000     0.256000000
C    -2.416000000    -5.489000000    -0.251000000
O    -2.223000000    -6.645000000    -0.993000000
C    -3.685000000    -4.911000000    -0.096000000
H    -4.548000000    -5.180000000    -0.700000000
C    -3.849000000    -3.863000000     0.819000000
O    -5.078000000    -3.257000000     0.858000000
C    -5.690000000    -2.686000000     2.017000000
C    -5.421000000    -1.333000000     2.288000000
H    -4.625000000    -0.810000000     1.764000000
C    -6.423000000    -3.512000000     2.845000000
H    -6.547000000    -4.518000000     2.451000000
C    -7.036000000    -2.985000000     3.954000000
H    -7.665000000    -3.569000000     4.621000000
C    -6.954000000    -1.648000000     4.178000000
H    -7.436000000    -1.264000000     5.073000000
C    -6.130000000    -0.825000000     3.432000000
O    -6.142000000     0.532000000     3.664000000
C    -5.151000000     1.405000000     3.306000000
C    -5.524000000     2.458000000     2.475000000
H    -6.586000000     2.381000000     2.260000000
C    -4.615000000     3.369000000     2.016000000
O    -5.074000000     4.222000000     1.067000000
C    -4.282000000     5.157000000     0.561000000
C    -3.581000000     4.908000000    -0.634000000
H    -3.804000000     4.006000000    -1.198000000
C    -4.102000000     6.369000000     1.164000000
H    -4.588000000     6.679000000     2.085000000
C    -3.214000000     7.335000000     0.642000000
H    -3.006000000     8.236000000     1.214000000
C    -2.578000000     7.160000000    -0.633000000
H    -2.073000000     7.943000000    -1.192000000
C    -2.826000000     5.870000000    -1.256000000
O    -2.377000000     5.653000000    -2.503000000
C    -1.079000000     5.133000000    -2.776000000
C    -0.709000000     4.980000000    -4.126000000
H    -1.354000000     5.269000000    -4.952000000
C     0.632000000     4.498000000    -4.450000000
O     1.031000000     4.282000000    -5.778000000
C     1.363000000     3.054000000    -6.264000000
C     0.645000000     1.923000000    -5.959000000
H    -0.250000000     1.924000000    -5.342000000
C     2.520000000     2.922000000    -7.041000000
H     3.109000000     3.821000000    -7.204000000
C     3.072000000     1.671000000    -7.290000000
H     4.097000000     1.576000000    -7.641000000
C     2.408000000     0.490000000    -6.880000000
H     2.860000000    -0.478000000    -7.080000000
C     1.145000000     0.618000000    -6.271000000
O     0.444000000    -0.448000000    -5.778000000
C     0.889000000    -1.483000000    -5.062000000
C     0.388000000    -2.745000000    -5.200000000
H    -0.261000000    -3.012000000    -6.030000000
C     0.890000000    -3.791000000    -4.420000000
O     0.511000000    -5.088000000    -4.648000000
C     0.340000000    -6.044000000    -3.676000000
C     1.019000000    -7.248000000    -3.664000000
H     1.776000000    -7.450000000    -4.417000000
C     0.657000000    -8.212000000    -2.696000000
H     1.175000000    -9.160000000    -2.579000000
C    -0.394000000    -7.939000000    -1.827000000
H    -0.750000000    -8.676000000    -1.112000000
C    -1.135000000    -6.781000000    -1.863000000
C    -0.739000000    -5.783000000    -2.780000000
H    -1.374000000    -4.913000000    -2.924000000
O    -5.368000000     2.038000000    -3.146000000
H    -5.305000000     1.264000000    -2.587000000
H    -4.699000000     1.904000000    -3.817000000
O    -8.641000000    -4.525000000    -1.419000000
H    -8.373000000    -3.609000000    -1.348000000
H    -8.150000000    -4.860000000    -2.170000000
O    -2.994000000    -2.402000000    -4.650000000
H    -3.221000000    -3.286000000    -4.938000000
H    -3.602000000    -2.220000000    -3.933000000
O    -1.918000000    -1.371000000    -6.949000000
H    -1.281000000    -0.765000000    -6.570000000
H    -2.329000000    -1.790000000    -6.192000000
O    -7.574000000     2.459000000    -1.744000000
H    -7.326000000     1.939000000    -0.980000000
H    -6.765000000     2.542000000    -2.249000000
O    -8.875000000    -3.184000000    -4.407000000
H    -9.574000000    -2.547000000    -4.557000000
H    -8.147000000    -2.665000000    -4.066000000
O    -5.410000000     0.423000000    -6.225000000
H    -5.270000000     1.208000000    -5.695000000
H    -6.281000000     0.542000000    -6.604000000
O    -8.633000000     0.296000000    -4.303000000
H    -8.395000000     0.988000000    -3.685000000
H    -7.942000000    -0.359000000    -4.207000000
O    -6.937000000     0.713000000     0.143000000
H    -7.143000000    -0.009000000     0.736000000
H    -6.135000000     0.438000000    -0.301000000
O    -2.085000000     0.066000000    -4.001000000
H    -2.581000000    -0.753000000    -4.027000000
H    -1.623000000     0.040000000    -3.163000000
O    -6.868000000    -6.689000000    -1.298000000
H    -6.632000000    -5.918000000    -1.815000000
H    -7.773000000    -6.530000000    -1.031000000
O    -8.378000000    -1.191000000     1.256000000
H    -8.747000000    -2.049000000     1.468000000
H    -8.691000000    -0.616000000     1.954000000
O    -4.597000000    -1.736000000    -8.101000000
H    -4.365000000    -1.210000000    -7.336000000
H    -4.657000000    -1.104000000    -8.818000000
O    -2.854000000     2.469000000    -4.801000000
H    -2.007000000     2.884000000    -4.635000000
H    -2.695000000     1.536000000    -4.658000000
O    -6.459000000    -1.417000000    -4.574000000
H    -5.920000000    -1.587000000    -3.802000000
H    -5.832000000    -1.171000000    -5.254000000
O    -3.377000000    -4.831000000    -5.659000000
H    -4.256000000    -4.650000000    -5.993000000
H    -3.055000000    -5.547000000    -6.206000000
O    -7.497000000    -1.919000000    -1.336000000
H    -7.751000000    -1.608000000    -0.468000000
H    -6.717000000    -1.409000000    -1.555000000
O    -8.991000000    -1.188000000    -6.775000000
H    -8.705000000    -0.444000000    -7.305000000
H    -8.493000000    -1.107000000    -5.962000000
O    -5.903000000    -4.532000000    -2.954000000
H    -5.438000000    -4.248000000    -3.741000000
H    -5.609000000    -3.929000000    -2.272000000
