201
-1262.14626
C    -3.984000000     1.625000000     2.447000000
H    -3.623000000     2.512000000     1.931000000
C    -3.096000000     0.810000000     3.161000000
C    -3.552000000    -0.394000000     3.566000000
H    -2.886000000    -1.088000000     4.072000000
C    -1.667000000     1.232000000     3.470000000
O    -1.451000000     2.632000000     3.558000000
H    -1.015000000     0.947000000     2.631000000
O    -1.047000000     0.615000000     4.635000000
C     0.260000000     0.176000000     4.526000000
C     0.438000000    -1.190000000     4.352000000
H    -0.437000000    -1.817000000     4.502000000
C     1.652000000    -1.717000000     4.117000000
O     1.721000000    -3.021000000     3.762000000
C     2.799000000    -0.848000000     4.074000000
C     4.144000000    -1.347000000     3.576000000
H     4.992000000    -0.804000000     3.997000000
C     4.141000000    -1.347000000     2.049000000
C     4.749000000    -0.345000000     1.397000000
H     5.182000000     0.433000000     2.021000000
H     4.335000000    -2.367000000     3.917000000
C     2.634000000     0.530000000     4.289000000
H     3.507000000     1.166000000     4.164000000
C     1.373000000     1.107000000     4.476000000
C     1.212000000     2.580000000     4.659000000
H     2.073000000     3.067000000     5.121000000
H     0.387000000     2.825000000     5.332000000
C     0.846000000     3.255000000     3.331000000
C     1.828000000     3.774000000     2.543000000
H     2.869000000     3.712000000     2.852000000
C    -0.423000000     3.260000000     2.858000000
C    -0.773000000     3.955000000     1.754000000
H    -1.794000000     4.064000000     1.397000000
C     0.237000000     4.484000000     0.926000000
O    -0.189000000     4.998000000    -0.270000000
C     0.063000000     4.198000000    -1.476000000
C    -1.137000000     4.156000000    -2.394000000
C    -0.918000000     4.110000000    -3.771000000
H     0.080000000     3.884000000    -4.139000000
C    -2.420000000     4.253000000    -1.934000000
H    -2.603000000     4.349000000    -0.867000000
O     1.273000000     4.537000000    -2.150000000
H     0.295000000     3.199000000    -1.078000000
C     1.564000000     4.382000000     1.322000000
C     2.694000000     4.918000000     0.400000000
H     3.487000000     5.228000000     1.084000000
H     2.401000000     5.848000000    -0.091000000
C     3.157000000     3.937000000    -0.657000000
C     4.130000000     3.004000000    -0.291000000
H     4.582000000     2.982000000     0.697000000
C     2.435000000     3.805000000    -1.848000000
C     2.741000000     2.740000000    -2.676000000
H     2.100000000     2.565000000    -3.536000000
C     3.684000000     1.812000000    -2.371000000
O     3.839000000     0.700000000    -3.184000000
C     3.274000000    -0.497000000    -2.548000000
C     2.464000000    -1.341000000    -3.599000000
C     1.562000000    -0.646000000    -4.311000000
H     1.553000000     0.441000000    -4.338000000
C     2.543000000    -2.766000000    -3.696000000
H     3.299000000    -3.364000000    -3.192000000
O     4.339000000    -1.347000000    -2.062000000
H     2.534000000    -0.228000000    -1.780000000
C     4.434000000     1.953000000    -1.177000000
C     5.448000000     0.917000000    -0.715000000
H     6.162000000     1.461000000    -0.093000000
H     6.045000000     0.619000000    -1.580000000
C     4.869000000    -0.288000000     0.025000000
C     4.452000000    -1.369000000    -0.674000000
C     3.768000000    -2.396000000    -0.114000000
H     3.453000000    -3.255000000    -0.702000000
C     3.605000000    -2.454000000     1.291000000
O     2.880000000    -3.480000000     1.779000000
C     1.569000000    -3.237000000     2.345000000
H     1.174000000    -2.345000000     1.837000000
C     0.627000000    -4.387000000     2.042000000
C    -0.538000000    -4.465000000     2.829000000
H    -0.605000000    -3.820000000     3.701000000
C     0.697000000    -5.017000000     0.832000000
H     1.399000000    -4.675000000     0.075000000
C    -0.263000000    -5.982000000     0.468000000
O    -0.092000000    -6.713000000    -0.735000000
C    -1.346000000    -6.194000000     1.299000000
H    -2.077000000    -6.967000000     1.073000000
C    -1.460000000    -5.476000000     2.446000000
O    -2.542000000    -5.759000000     3.189000000
C    -3.110000000    -4.881000000     4.063000000
C    -3.895000000    -3.875000000     3.502000000
H    -4.260000000    -3.837000000     2.479000000
C    -2.915000000    -4.932000000     5.436000000
H    -2.378000000    -5.722000000     5.954000000
C    -3.542000000    -3.991000000     6.263000000
H    -3.357000000    -3.973000000     7.334000000
C    -4.306000000    -3.015000000     5.674000000
H    -4.880000000    -2.283000000     6.236000000
C    -4.527000000    -2.988000000     4.317000000
O    -5.378000000    -2.028000000     3.686000000
C    -4.904000000    -0.796000000     3.335000000
C    -5.777000000    -0.006000000     2.651000000
H    -6.823000000    -0.276000000     2.535000000
C    -5.311000000     1.247000000     2.209000000
O    -6.245000000     1.972000000     1.450000000
C    -5.945000000     3.121000000     0.927000000
C    -5.442000000     3.138000000    -0.373000000
H    -5.236000000     2.209000000    -0.899000000
C    -6.055000000     4.306000000     1.620000000
H    -6.518000000     4.405000000     2.599000000
C    -5.796000000     5.485000000     1.075000000
H    -5.913000000     6.370000000     1.695000000
C    -5.421000000     5.554000000    -0.312000000
H    -5.426000000     6.519000000    -0.812000000
C    -5.178000000     4.403000000    -0.988000000
O    -4.807000000     4.405000000    -2.312000000
C    -3.499000000     4.239000000    -2.784000000
C    -3.293000000     4.171000000    -4.161000000
H    -4.168000000     4.234000000    -4.803000000
C    -2.028000000     4.120000000    -4.676000000
O    -1.891000000     3.913000000    -6.035000000
C    -0.979000000     2.978000000    -6.519000000
C    -0.980000000     1.679000000    -6.017000000
H    -1.877000000     1.372000000    -5.485000000
C     0.135000000     3.401000000    -7.226000000
H     0.150000000     4.439000000    -7.550000000
C     1.160000000     2.520000000    -7.460000000
H     2.026000000     2.813000000    -8.049000000
C     1.042000000     1.186000000    -7.178000000
H     1.731000000     0.471000000    -7.621000000
C    -0.045000000     0.722000000    -6.401000000
O    -0.220000000    -0.618000000    -5.997000000
C     0.643000000    -1.264000000    -5.171000000
C     0.654000000    -2.629000000    -5.220000000
H    -0.021000000    -3.128000000    -5.910000000
C     1.600000000    -3.386000000    -4.544000000
O     1.693000000    -4.740000000    -4.799000000
C     1.810000000    -5.583000000    -3.711000000
C     2.991000000    -6.211000000    -3.453000000
H     3.808000000    -6.087000000    -4.160000000
C     3.103000000    -7.204000000    -2.469000000
H     4.002000000    -7.806000000    -2.362000000
C     2.060000000    -7.393000000    -1.596000000
H     2.132000000    -8.087000000    -0.763000000
C     0.911000000    -6.585000000    -1.652000000
C     0.766000000    -5.787000000    -2.784000000
H    -0.177000000    -5.262000000    -2.918000000
O    -8.409000000    -2.431000000    -3.244000000
H    -7.840000000    -1.976000000    -3.865000000
H    -7.807000000    -2.895000000    -2.662000000
O    -6.649000000    -1.193000000    -5.265000000
H    -5.919000000    -1.116000000    -4.651000000
H    -6.406000000    -1.921000000    -5.837000000
O    -5.910000000    -3.341000000    -2.695000000
H    -5.589000000    -3.757000000    -1.895000000
H    -5.558000000    -2.452000000    -2.662000000
O    -4.207000000    -8.348000000     0.905000000
H    -3.593000000    -9.004000000     0.576000000
H    -4.738000000    -8.114000000     0.144000000
O    -7.739000000    -3.756000000     3.749000000
H    -6.824000000    -3.518000000     3.900000000
H    -7.802000000    -4.665000000     4.042000000
O    -6.006000000    -5.471000000     1.350000000
H    -5.539000000    -4.862000000     0.777000000
H    -6.109000000    -6.264000000     0.823000000
O    -3.432000000    -5.728000000    -1.557000000
H    -3.779000000    -5.092000000    -0.931000000
H    -2.640000000    -6.067000000    -1.140000000
O   -10.150000000    -0.360000000     0.403000000
H    -9.481000000    -0.368000000    -0.282000000
H    -9.816000000     0.253000000     1.057000000
O    -9.560000000    -5.036000000     1.986000000
H   -10.113000000    -4.445000000     1.474000000
H    -8.767000000    -4.531000000     2.161000000
O    -5.521000000    -7.435000000    -1.214000000
H    -6.318000000    -7.305000000    -1.727000000
H    -4.868000000    -6.881000000    -1.643000000
O    -7.877000000    -3.044000000     0.695000000
H    -7.645000000    -3.971000000     0.645000000
H    -7.077000000    -2.582000000     0.444000000
O    -3.682000000    -1.858000000    -4.794000000
H    -3.419000000    -2.772000000    -4.685000000
H    -3.300000000    -1.408000000    -4.041000000
O    -9.799000000    -1.740000000     2.655000000
H    -9.485000000    -1.604000000     1.762000000
H    -9.140000000    -2.307000000     3.056000000
O    -7.846000000     0.518000000    -3.081000000
H    -8.643000000     0.078000000    -3.378000000
H    -7.984000000     0.654000000    -2.143000000
O    -6.630000000    -4.633000000    -5.542000000
H    -7.323000000    -4.129000000    -5.969000000
H    -6.755000000    -4.467000000    -4.608000000
O    -7.516000000     0.156000000    -0.510000000
H    -7.318000000     0.785000000     0.184000000
H    -6.898000000    -0.560000000    -0.368000000
O    -6.219000000    -7.196000000     3.523000000
H    -5.937000000    -6.541000000     2.884000000
H    -5.864000000    -6.886000000     4.356000000
O    -5.015000000    -0.358000000    -2.547000000
H    -5.752000000     0.091000000    -2.962000000
H    -5.205000000    -0.316000000    -1.610000000
O    -2.806000000    -4.542000000    -4.089000000
H    -3.339000000    -5.228000000    -4.491000000
H    -2.706000000    -4.820000000    -3.179000000
