201
-1274.88113
C    -4.604000000     2.159000000     1.673000000
H    -4.395000000     3.216000000     1.536000000
C    -3.691000000     1.404000000     2.430000000
C    -3.982000000     0.073000000     2.673000000
H    -3.334000000    -0.527000000     3.306000000
C    -2.379000000     1.975000000     2.931000000
O    -2.406000000     3.432000000     3.116000000
H    -1.596000000     1.737000000     2.196000000
O    -1.971000000     1.468000000     4.237000000
C    -0.638000000     1.137000000     4.376000000
C    -0.395000000    -0.192000000     4.250000000
H    -1.223000000    -0.872000000     4.069000000
C     0.888000000    -0.653000000     4.306000000
O     0.981000000    -2.037000000     4.276000000
C     2.022000000     0.222000000     4.350000000
C     3.453000000    -0.268000000     4.303000000
H     4.141000000     0.524000000     4.607000000
C     3.902000000    -0.640000000     2.900000000
C     4.552000000     0.366000000     2.217000000
H     4.927000000     1.235000000     2.751000000
H     3.599000000    -1.154000000     4.925000000
C     1.720000000     1.650000000     4.401000000
H     2.508000000     2.392000000     4.310000000
C     0.375000000     2.058000000     4.453000000
C     0.058000000     3.507000000     4.489000000
H     0.911000000     4.011000000     4.949000000
H    -0.842000000     3.758000000     5.055000000
C    -0.088000000     3.991000000     3.116000000
C     1.036000000     4.359000000     2.379000000
H     2.024000000     4.321000000     2.832000000
C    -1.337000000     4.027000000     2.488000000
C    -1.495000000     4.276000000     1.094000000
H    -2.434000000     4.306000000     0.546000000
C    -0.378000000     4.650000000     0.352000000
O    -0.523000000     4.761000000    -1.001000000
C     0.093000000     3.774000000    -1.762000000
C    -0.934000000     3.191000000    -2.746000000
C    -0.614000000     2.074000000    -3.515000000
H     0.371000000     1.616000000    -3.526000000
C    -2.280000000     3.685000000    -2.798000000
H    -2.565000000     4.547000000    -2.201000000
O     1.337000000     4.289000000    -2.342000000
H     0.217000000     2.946000000    -1.048000000
C     0.908000000     4.641000000     0.960000000
C     2.183000000     5.117000000     0.243000000
H     2.844000000     5.520000000     1.013000000
H     1.877000000     5.980000000    -0.353000000
C     2.862000000     3.974000000    -0.497000000
C     3.886000000     3.248000000     0.121000000
H     4.254000000     3.531000000     1.104000000
C     2.473000000     3.733000000    -1.829000000
C     2.851000000     2.518000000    -2.402000000
H     2.448000000     2.119000000    -3.330000000
C     3.875000000     1.774000000    -1.809000000
O     4.267000000     0.617000000    -2.507000000
C     3.843000000    -0.708000000    -2.007000000
C     3.873000000    -1.775000000    -3.093000000
C     3.732000000    -1.303000000    -4.412000000
H     3.764000000    -0.235000000    -4.608000000
C     3.663000000    -3.183000000    -2.911000000
H     3.743000000    -3.661000000    -1.937000000
O     4.791000000    -1.188000000    -1.088000000
H     2.900000000    -0.709000000    -1.440000000
C     4.433000000     2.149000000    -0.572000000
C     5.464000000     1.318000000     0.049000000
H     6.129000000     1.941000000     0.650000000
H     6.077000000     0.816000000    -0.703000000
C     4.872000000     0.149000000     0.865000000
C     4.498000000    -1.036000000     0.210000000
C     3.855000000    -1.993000000     0.946000000
H     3.614000000    -2.985000000     0.574000000
C     3.525000000    -1.784000000     2.282000000
O     2.726000000    -2.741000000     2.935000000
C     1.286000000    -2.568000000     2.959000000
H     1.107000000    -1.734000000     2.264000000
C     0.454000000    -3.799000000     2.693000000
C    -0.648000000    -4.126000000     3.372000000
H    -0.843000000    -3.627000000     4.318000000
C     0.759000000    -4.533000000     1.540000000
H     1.645000000    -4.229000000     0.989000000
C    -0.075000000    -5.528000000     1.060000000
O     0.126000000    -6.230000000    -0.118000000
C    -1.172000000    -5.910000000     1.870000000
H    -1.687000000    -6.838000000     1.630000000
C    -1.429000000    -5.162000000     3.029000000
O    -2.573000000    -5.490000000     3.770000000
C    -3.536000000    -4.545000000     4.145000000
C    -4.039000000    -3.696000000     3.195000000
H    -3.679000000    -3.816000000     2.176000000
C    -4.010000000    -4.437000000     5.432000000
H    -3.610000000    -5.119000000     6.178000000
C    -4.911000000    -3.466000000     5.790000000
H    -5.316000000    -3.449000000     6.798000000
C    -5.427000000    -2.563000000     4.843000000
H    -6.103000000    -1.781000000     5.182000000
C    -5.037000000    -2.714000000     3.487000000
O    -5.581000000    -1.861000000     2.512000000
C    -5.167000000    -0.514000000     2.186000000
C    -6.089000000     0.245000000     1.448000000
H    -6.993000000    -0.230000000     1.076000000
C    -5.766000000     1.523000000     1.148000000
O    -6.626000000     2.300000000     0.474000000
C    -6.188000000     3.301000000    -0.397000000
C    -5.398000000     2.995000000    -1.503000000
H    -5.092000000     1.974000000    -1.715000000
C    -6.732000000     4.561000000    -0.283000000
H    -7.326000000     4.905000000     0.560000000
C    -6.482000000     5.559000000    -1.204000000
H    -6.940000000     6.539000000    -1.093000000
C    -5.665000000     5.270000000    -2.320000000
H    -5.507000000     5.991000000    -3.119000000
C    -5.218000000     3.965000000    -2.512000000
O    -4.534000000     3.585000000    -3.641000000
C    -3.215000000     3.070000000    -3.566000000
C    -2.853000000     1.984000000    -4.389000000
H    -3.561000000     1.543000000    -5.087000000
C    -1.580000000     1.471000000    -4.350000000
O    -1.208000000     0.379000000    -5.159000000
C    -0.087000000     0.509000000    -5.941000000
C     0.766000000    -0.611000000    -5.959000000
H     0.506000000    -1.511000000    -5.408000000
C     0.177000000     1.655000000    -6.734000000
H    -0.615000000     2.395000000    -6.819000000
C     1.319000000     1.673000000    -7.499000000
H     1.482000000     2.554000000    -8.114000000
C     2.190000000     0.551000000    -7.557000000
H     3.027000000     0.497000000    -8.247000000
C     1.908000000    -0.529000000    -6.712000000
O     2.814000000    -1.522000000    -6.594000000
C     3.229000000    -2.073000000    -5.388000000
C     3.227000000    -3.498000000    -5.288000000
H     3.042000000    -4.197000000    -6.100000000
C     3.391000000    -3.993000000    -4.007000000
O     3.148000000    -5.305000000    -3.850000000
C     2.866000000    -5.851000000    -2.635000000
C     3.857000000    -6.719000000    -2.091000000
H     4.798000000    -6.852000000    -2.619000000
C     3.513000000    -7.343000000    -0.841000000
H     4.273000000    -8.034000000    -0.485000000
C     2.345000000    -7.136000000    -0.109000000
H     2.092000000    -7.651000000     0.814000000
C     1.400000000    -6.302000000    -0.697000000
C     1.667000000    -5.637000000    -1.916000000
H     0.933000000    -4.937000000    -2.307000000
O    -9.815000000    -3.254000000     0.468000000
H    -8.899000000    -3.515000000     0.564000000
H   -10.279000000    -3.757000000     1.137000000
O    -5.148000000    -7.739000000    -2.735000000
H    -5.346000000    -7.204000000    -1.966000000
H    -4.203000000    -7.645000000    -2.854000000
O    -7.212000000    -1.564000000    -2.139000000
H    -6.540000000    -1.905000000    -1.549000000
H    -6.726000000    -1.056000000    -2.788000000
O    -7.153000000    -5.027000000    -5.179000000
H    -7.913000000    -4.920000000    -5.751000000
H    -7.490000000    -4.861000000    -4.298000000
O    -6.272000000     0.228000000    -4.278000000
H    -6.162000000     0.423000000    -5.208000000
H    -5.531000000    -0.340000000    -4.063000000
O    -6.169000000    -5.976000000     1.631000000
H    -6.611000000    -6.632000000     1.093000000
H    -6.136000000    -6.365000000     2.505000000
O    -2.960000000    -5.213000000    -3.122000000
H    -2.663000000    -4.485000000    -3.668000000
H    -3.033000000    -4.839000000    -2.244000000
O    -7.277000000    -3.520000000     1.296000000
H    -6.525000000    -2.945000000     1.154000000
H    -6.893000000    -4.375000000     1.488000000
O    -8.451000000    -3.153000000     4.171000000
H    -8.294000000    -2.260000000     4.479000000
H    -8.299000000    -3.111000000     3.227000000
O    -9.449000000    -1.002000000    -0.786000000
H    -9.730000000    -1.626000000    -0.117000000
H    -8.557000000    -1.271000000    -1.005000000
O    -4.836000000    -3.649000000    -5.579000000
H    -4.518000000    -3.637000000    -6.482000000
H    -5.551000000    -4.286000000    -5.585000000
O    -8.557000000    -3.912000000    -3.004000000
H    -7.942000000    -4.444000000    -2.499000000
H    -8.397000000    -3.016000000    -2.709000000
O    -4.559000000    -1.779000000    -3.470000000
H    -4.743000000    -2.648000000    -3.827000000
H    -4.626000000    -1.891000000    -2.522000000
O    -1.134000000    -3.710000000    -6.605000000
H    -1.061000000    -3.229000000    -5.781000000
H    -0.231000000    -3.921000000    -6.841000000
O    -2.583000000    -8.727000000    -0.587000000
H    -3.294000000    -8.114000000    -0.397000000
H    -2.157000000    -8.365000000    -1.364000000
O    -2.091000000    -7.647000000    -2.933000000
H    -2.259000000    -6.712000000    -3.048000000
H    -1.508000000    -7.877000000    -3.656000000
O    -6.080000000    -4.619000000    -1.859000000
H    -5.849000000    -3.906000000    -1.264000000
H    -5.249000000    -4.883000000    -2.253000000
O    -1.764000000    -2.365000000    -3.780000000
H    -2.462000000    -1.751000000    -4.009000000
H    -1.381000000    -2.004000000    -2.981000000
O    -4.358000000    -6.749000000    -0.283000000
H    -4.849000000    -6.344000000     0.431000000
H    -4.038000000    -6.012000000    -0.802000000
