201
-1261.20808
C    -4.351000000     1.807000000     2.261000000
H    -4.164000000     2.870000000     2.133000000
C    -3.407000000     0.983000000     2.859000000
C    -3.678000000    -0.390000000     3.040000000
H    -2.955000000    -1.104000000     3.425000000
C    -2.068000000     1.554000000     3.298000000
O    -2.169000000     2.984000000     3.490000000
H    -1.270000000     1.258000000     2.601000000
O    -1.630000000     0.793000000     4.495000000
C    -0.264000000     0.432000000     4.504000000
C     0.010000000    -0.889000000     4.266000000
H    -0.799000000    -1.615000000     4.240000000
C     1.352000000    -1.368000000     4.260000000
O     1.613000000    -2.739000000     3.993000000
C     2.395000000    -0.457000000     4.214000000
C     3.823000000    -0.974000000     3.942000000
H     4.491000000    -0.336000000     4.524000000
C     4.224000000    -1.030000000     2.458000000
C     4.697000000     0.095000000     1.838000000
H     5.043000000     0.947000000     2.417000000
H     4.112000000    -1.913000000     4.418000000
C     2.097000000     0.911000000     4.369000000
H     2.874000000     1.652000000     4.539000000
C     0.773000000     1.346000000     4.578000000
C     0.443000000     2.884000000     4.754000000
H     1.327000000     3.343000000     5.201000000
H    -0.367000000     3.110000000     5.451000000
C     0.176000000     3.618000000     3.404000000
C     1.216000000     4.088000000     2.577000000
H     2.191000000     3.807000000     2.966000000
C    -1.130000000     3.708000000     2.895000000
C    -1.400000000     4.161000000     1.640000000
H    -2.399000000     4.065000000     1.222000000
C    -0.375000000     4.711000000     0.893000000
O    -0.703000000     5.018000000    -0.361000000
C    -0.407000000     3.991000000    -1.328000000
C    -1.471000000     3.830000000    -2.396000000
C    -1.149000000     3.528000000    -3.658000000
H    -0.093000000     3.419000000    -3.893000000
C    -2.779000000     4.042000000    -2.081000000
H    -3.070000000     4.277000000    -1.060000000
O     0.839000000     4.383000000    -1.922000000
H    -0.262000000     3.000000000    -0.872000000
C     0.916000000     4.709000000     1.344000000
C     2.124000000     5.098000000     0.500000000
H     3.021000000     5.365000000     1.062000000
H     1.793000000     5.931000000    -0.125000000
C     2.551000000     3.992000000    -0.333000000
C     3.630000000     3.240000000     0.135000000
H     4.147000000     3.455000000     1.067000000
C     1.969000000     3.706000000    -1.518000000
C     2.421000000     2.652000000    -2.292000000
H     1.896000000     2.408000000    -3.213000000
C     3.477000000     1.918000000    -1.900000000
O     3.628000000     0.752000000    -2.713000000
C     3.304000000    -0.549000000    -2.301000000
C     2.832000000    -1.347000000    -3.512000000
C     2.269000000    -0.754000000    -4.673000000
H     2.214000000     0.330000000    -4.717000000
C     2.852000000    -2.718000000    -3.470000000
H     3.230000000    -3.301000000    -2.634000000
O     4.450000000    -1.111000000    -1.689000000
H     2.500000000    -0.404000000    -1.565000000
C     4.162000000     2.205000000    -0.740000000
C     5.276000000     1.275000000    -0.268000000
H     5.943000000     1.821000000     0.403000000
H     5.889000000     0.986000000    -1.124000000
C     4.800000000     0.051000000     0.466000000
C     4.524000000    -1.075000000    -0.286000000
C     4.150000000    -2.214000000     0.393000000
H     3.668000000    -3.043000000    -0.119000000
C     3.949000000    -2.157000000     1.748000000
O     3.337000000    -3.283000000     2.351000000
C     1.913000000    -3.118000000     2.669000000
H     1.532000000    -2.292000000     2.050000000
C     1.084000000    -4.332000000     2.239000000
C    -0.092000000    -4.640000000     2.928000000
H    -0.324000000    -4.138000000     3.864000000
C     1.327000000    -5.078000000     1.043000000
H     2.182000000    -4.914000000     0.393000000
C     0.465000000    -6.085000000     0.623000000
O     0.737000000    -6.829000000    -0.519000000
C    -0.719000000    -6.344000000     1.273000000
H    -1.385000000    -7.148000000     0.969000000
C    -0.992000000    -5.592000000     2.413000000
O    -2.147000000    -5.902000000     3.080000000
C    -2.885000000    -4.906000000     3.746000000
C    -3.717000000    -4.091000000     3.021000000
H    -3.641000000    -4.216000000     1.944000000
C    -3.062000000    -4.875000000     5.110000000
H    -2.549000000    -5.651000000     5.672000000
C    -3.770000000    -3.886000000     5.764000000
H    -3.771000000    -3.805000000     6.848000000
C    -4.520000000    -2.947000000     5.053000000
H    -5.163000000    -2.271000000     5.611000000
C    -4.483000000    -3.062000000     3.656000000
O    -5.294000000    -2.203000000     2.910000000
C    -4.920000000    -0.929000000     2.641000000
C    -5.897000000    -0.055000000     2.137000000
H    -6.849000000    -0.474000000     1.820000000
C    -5.586000000     1.317000000     2.001000000
O    -6.613000000     2.040000000     1.364000000
C    -6.310000000     3.134000000     0.589000000
C    -5.728000000     2.930000000    -0.620000000
H    -5.453000000     1.927000000    -0.936000000
C    -6.604000000     4.429000000     1.012000000
H    -6.966000000     4.556000000     2.029000000
C    -6.335000000     5.613000000     0.275000000
H    -6.601000000     6.598000000     0.652000000
C    -5.762000000     5.346000000    -0.991000000
H    -5.445000000     6.167000000    -1.630000000
C    -5.574000000     4.031000000    -1.452000000
O    -5.135000000     3.861000000    -2.740000000
C    -3.774000000     3.801000000    -3.030000000
C    -3.396000000     3.417000000    -4.332000000
H    -4.174000000     3.196000000    -5.058000000
C    -2.115000000     3.241000000    -4.649000000
O    -1.792000000     2.789000000    -5.891000000
C    -0.684000000     2.238000000    -6.308000000
C    -0.381000000     0.891000000    -6.199000000
H    -1.042000000     0.197000000    -5.686000000
C     0.296000000     3.062000000    -6.955000000
H     0.042000000     4.110000000    -7.093000000
C     1.463000000     2.513000000    -7.558000000
H     2.246000000     3.197000000    -7.877000000
C     1.690000000     1.162000000    -7.443000000
H     2.658000000     0.828000000    -7.808000000
C     0.772000000     0.368000000    -6.765000000
O     0.960000000    -1.029000000    -6.703000000
C     1.735000000    -1.563000000    -5.703000000
C     1.739000000    -2.913000000    -5.570000000
H     1.305000000    -3.539000000    -6.346000000
C     2.373000000    -3.481000000    -4.523000000
O     2.484000000    -4.849000000    -4.411000000
C     2.591000000    -5.583000000    -3.270000000
C     3.847000000    -6.172000000    -3.217000000
H     4.682000000    -5.802000000    -3.807000000
C     4.061000000    -7.036000000    -2.146000000
H     4.998000000    -7.513000000    -1.871000000
C     3.043000000    -7.368000000    -1.243000000
H     3.158000000    -8.105000000    -0.452000000
C     1.786000000    -6.745000000    -1.379000000
C     1.577000000    -5.840000000    -2.421000000
H     0.625000000    -5.369000000    -2.655000000
O    -9.793000000    -2.540000000     0.335000000
H    -8.838000000    -2.527000000     0.392000000
H   -10.085000000    -2.032000000     1.092000000
O    -5.554000000     0.149000000    -2.455000000
H    -5.311000000    -0.678000000    -2.039000000
H    -4.749000000     0.451000000    -2.876000000
O    -3.834000000    -6.378000000    -4.747000000
H    -4.678000000    -6.129000000    -5.125000000
H    -3.258000000    -5.637000000    -4.939000000
O    -2.975000000    -0.443000000    -3.943000000
H    -2.152000000    -0.195000000    -3.522000000
H    -3.065000000    -1.379000000    -3.760000000
O    -8.298000000    -6.058000000    -0.369000000
H    -8.237000000    -6.961000000    -0.058000000
H    -7.428000000    -5.691000000    -0.209000000
O    -7.558000000    -3.363000000     3.866000000
H    -8.041000000    -4.178000000     3.999000000
H    -6.759000000    -3.629000000     3.411000000
O    -1.910000000    -4.974000000    -2.163000000
H    -1.558000000    -5.762000000    -1.750000000
H    -2.595000000    -4.675000000    -1.565000000
O    -8.148000000    -5.204000000    -3.246000000
H    -7.221000000    -4.967000000    -3.273000000
H    -8.220000000    -5.804000000    -2.504000000
O    -7.001000000    -2.390000000    -0.139000000
H    -6.166000000    -2.134000000    -0.531000000
H    -6.866000000    -3.295000000     0.143000000
O    -8.206000000     0.555000000    -1.544000000
H    -8.547000000    -0.268000000    -1.894000000
H    -7.255000000     0.456000000    -1.583000000
O    -5.418000000    -3.886000000    -5.703000000
H    -5.498000000    -3.011000000    -6.082000000
H    -6.122000000    -4.390000000    -6.112000000
O    -8.517000000    -2.204000000    -2.457000000
H    -8.030000000    -2.236000000    -1.634000000
H    -8.760000000    -3.115000000    -2.627000000
O    -0.886000000    -2.891000000    -3.336000000
H    -1.214000000    -3.656000000    -2.862000000
H    -1.206000000    -3.009000000    -4.230000000
O    -6.530000000    -1.200000000    -5.095000000
H    -5.928000000    -0.587000000    -5.518000000
H    -6.668000000    -0.835000000    -4.221000000
O    -2.148000000    -4.153000000    -5.630000000
H    -2.765000000    -4.073000000    -6.357000000
H    -1.603000000    -4.905000000    -5.861000000
O    -5.322000000    -6.887000000    -2.511000000
H    -5.333000000    -5.931000000    -2.484000000
H    -4.692000000    -7.101000000    -3.199000000
O    -5.457000000    -4.168000000    -3.009000000
H    -5.218000000    -3.416000000    -2.467000000
H    -5.220000000    -3.907000000    -3.899000000
O    -0.278000000    -0.432000000    -2.774000000
H    -0.438000000    -1.337000000    -3.042000000
H     0.190000000    -0.507000000    -1.943000000
O    -5.865000000    -4.992000000     0.401000000
H    -5.292000000    -5.692000000     0.714000000
H    -5.314000000    -4.477000000    -0.189000000
