201
-1254.15560
C    -3.966000000     0.177000000     3.059000000
H    -3.775000000     1.247000000     3.067000000
C    -2.963000000    -0.682000000     3.510000000
C    -3.082000000    -2.068000000     3.454000000
H    -2.336000000    -2.711000000     3.915000000
C    -1.633000000    -0.058000000     3.914000000
O    -1.715000000     1.295000000     4.394000000
H    -1.058000000    -0.055000000     2.977000000
O    -0.913000000    -0.881000000     4.859000000
C     0.379000000    -1.168000000     4.643000000
C     0.622000000    -2.318000000     3.913000000
H    -0.137000000    -3.071000000     3.717000000
C     1.899000000    -2.485000000     3.414000000
O     2.182000000    -3.679000000     2.680000000
C     2.904000000    -1.546000000     3.593000000
C     4.302000000    -1.778000000     2.955000000
H     4.997000000    -1.133000000     3.497000000
C     4.415000000    -1.393000000     1.505000000
C     4.876000000    -0.157000000     1.123000000
H     5.139000000     0.574000000     1.884000000
H     4.718000000    -2.763000000     3.179000000
C     2.612000000    -0.347000000     4.284000000
H     3.412000000     0.383000000     4.376000000
C     1.370000000    -0.201000000     4.816000000
C     1.027000000     1.231000000     5.362000000
H     1.952000000     1.606000000     5.805000000
H     0.235000000     1.122000000     6.106000000
C     0.551000000     2.183000000     4.259000000
C     1.475000000     2.947000000     3.583000000
H     2.545000000     2.981000000     3.772000000
C    -0.846000000     2.201000000     3.818000000
C    -1.258000000     2.972000000     2.716000000
H    -2.310000000     3.080000000     2.463000000
C    -0.274000000     3.793000000     2.096000000
O    -0.644000000     4.737000000     1.130000000
C    -0.303000000     4.335000000    -0.274000000
C    -1.558000000     4.500000000    -1.159000000
C    -1.427000000     5.024000000    -2.466000000
H    -0.450000000     5.402000000    -2.754000000
C    -2.793000000     4.133000000    -0.749000000
H    -2.848000000     3.733000000     0.260000000
O     0.798000000     5.078000000    -0.728000000
H     0.069000000     3.300000000    -0.310000000
C     1.068000000     3.775000000     2.596000000
C     2.094000000     4.728000000     1.977000000
H     2.906000000     4.970000000     2.665000000
H     1.798000000     5.755000000     1.752000000
C     2.611000000     4.232000000     0.595000000
C     3.767000000     3.505000000     0.578000000
H     4.386000000     3.506000000     1.472000000
C     1.967000000     4.430000000    -0.600000000
C     2.384000000     3.914000000    -1.837000000
H     1.752000000     4.027000000    -2.714000000
C     3.404000000     2.938000000    -1.763000000
O     3.522000000     2.140000000    -2.826000000
C     3.038000000     0.775000000    -2.758000000
C     2.157000000     0.345000000    -3.907000000
C     1.530000000     1.254000000    -4.738000000
H     1.804000000     2.304000000    -4.687000000
C     1.678000000    -0.978000000    -3.886000000
H     1.997000000    -1.750000000    -3.191000000
O     4.211000000    -0.055000000    -2.533000000
H     2.320000000     0.828000000    -1.926000000
C     4.059000000     2.759000000    -0.595000000
C     5.285000000     1.779000000    -0.508000000
H     5.924000000     2.098000000     0.318000000
H     5.851000000     1.811000000    -1.442000000
C     4.869000000     0.331000000    -0.224000000
C     4.484000000    -0.543000000    -1.211000000
C     3.928000000    -1.762000000    -0.855000000
H     3.566000000    -2.481000000    -1.586000000
C     3.984000000    -2.276000000     0.504000000
O     3.447000000    -3.540000000     0.714000000
C     2.089000000    -3.585000000     1.270000000
H     1.456000000    -2.748000000     0.937000000
C     1.253000000    -4.773000000     0.753000000
C     0.296000000    -5.459000000     1.540000000
H    -0.015000000    -5.168000000     2.539000000
C     1.487000000    -5.181000000    -0.542000000
H     2.235000000    -4.626000000    -1.102000000
C     0.871000000    -6.278000000    -1.060000000
O     1.113000000    -6.710000000    -2.336000000
C     0.000000000    -7.001000000    -0.285000000
H    -0.399000000    -7.930000000    -0.684000000
C    -0.295000000    -6.628000000     0.988000000
O    -1.275000000    -7.390000000     1.667000000
C    -1.996000000    -6.663000000     2.543000000
C    -2.848000000    -5.628000000     2.103000000
H    -2.921000000    -5.198000000     1.108000000
C    -1.939000000    -7.124000000     3.859000000
H    -1.307000000    -7.951000000     4.172000000
C    -2.593000000    -6.398000000     4.861000000
H    -2.455000000    -6.712000000     5.893000000
C    -3.472000000    -5.380000000     4.474000000
H    -4.040000000    -4.854000000     5.237000000
C    -3.545000000    -4.939000000     3.126000000
O    -4.472000000    -3.989000000     2.833000000
C    -4.275000000    -2.617000000     3.012000000
C    -5.369000000    -1.755000000     2.605000000
H    -6.192000000    -2.251000000     2.095000000
C    -5.188000000    -0.328000000     2.598000000
O    -6.128000000     0.473000000     2.104000000
C    -6.108000000     1.797000000     1.743000000
C    -5.724000000     2.078000000     0.447000000
H    -5.749000000     1.327000000    -0.339000000
C    -6.156000000     2.814000000     2.732000000
H    -6.284000000     2.608000000     3.792000000
C    -6.028000000     4.176000000     2.353000000
H    -6.019000000     4.943000000     3.123000000
C    -5.603000000     4.417000000     1.034000000
H    -5.420000000     5.460000000     0.787000000
C    -5.406000000     3.414000000     0.146000000
O    -5.159000000     3.725000000    -1.196000000
C    -3.943000000     4.196000000    -1.575000000
C    -3.755000000     4.672000000    -2.861000000
H    -4.595000000     4.774000000    -3.543000000
C    -2.513000000     5.032000000    -3.343000000
O    -2.398000000     5.496000000    -4.616000000
C    -1.471000000     4.934000000    -5.499000000
C    -1.182000000     3.581000000    -5.521000000
H    -1.742000000     2.885000000    -4.900000000
C    -0.821000000     5.828000000    -6.285000000
H    -0.941000000     6.908000000    -6.257000000
C     0.110000000     5.321000000    -7.205000000
H     0.641000000     6.008000000    -7.859000000
C     0.397000000     3.901000000    -7.240000000
H     1.130000000     3.529000000    -7.952000000
C    -0.253000000     3.069000000    -6.380000000
O    -0.066000000     1.733000000    -6.495000000
C     0.506000000     0.845000000    -5.549000000
C     0.056000000    -0.465000000    -5.511000000
H    -0.745000000    -0.864000000    -6.128000000
C     0.635000000    -1.411000000    -4.709000000
O     0.256000000    -2.717000000    -4.688000000
C     1.179000000    -3.693000000    -4.367000000
C     2.445000000    -3.671000000    -4.909000000
H     2.847000000    -2.923000000    -5.588000000
C     3.282000000    -4.761000000    -4.601000000
H     4.300000000    -4.879000000    -4.961000000
C     2.811000000    -5.848000000    -3.814000000
H     3.469000000    -6.695000000    -3.635000000
C     1.477000000    -5.827000000    -3.335000000
C     0.698000000    -4.705000000    -3.549000000
H    -0.271000000    -4.622000000    -3.064000000
O    -8.812000000    -2.102000000    -3.082000000
H    -8.326000000    -1.856000000    -3.868000000
H    -8.402000000    -2.917000000    -2.792000000
O    -2.881000000    -5.620000000    -2.998000000
H    -3.022000000    -4.819000000    -2.494000000
H    -2.644000000    -5.314000000    -3.874000000
O    -9.812000000    -5.655000000    -2.218000000
H   -10.528000000    -6.131000000    -1.799000000
H    -9.201000000    -5.465000000    -1.506000000
O    -7.038000000    -0.898000000    -4.965000000
H    -7.278000000    -1.028000000    -5.882000000
H    -6.102000000    -0.702000000    -4.987000000
O    -6.154000000     2.405000000    -4.314000000
H    -5.595000000     2.463000000    -3.540000000
H    -5.841000000     1.629000000    -4.779000000
O    -4.793000000    -5.069000000    -0.282000000
H    -5.083000000    -4.525000000     0.450000000
H    -4.539000000    -4.443000000    -0.960000000
O    -2.037000000    -3.350000000    -6.424000000
H    -2.519000000    -3.303000000    -5.598000000
H    -2.185000000    -4.242000000    -6.737000000
O    -2.197000000     1.091000000    -3.137000000
H    -2.556000000     1.093000000    -2.250000000
H    -1.274000000     0.863000000    -3.022000000
O    -5.890000000    -5.419000000    -4.597000000
H    -4.974000000    -5.147000000    -4.541000000
H    -6.312000000    -4.996000000    -3.849000000
O    -7.817000000    -5.480000000     0.271000000
H    -8.146000000    -5.667000000     1.150000000
H    -7.325000000    -6.265000000     0.027000000
O    -9.718000000    -0.656000000     1.216000000
H    -9.728000000     0.273000000     0.987000000
H    -9.019000000    -1.028000000     0.678000000
O    -9.134000000     1.507000000    -1.410000000
H    -8.486000000     0.803000000    -1.442000000
H    -9.333000000     1.606000000    -0.479000000
O    -5.735000000    -7.530000000    -0.288000000
H    -5.195000000    -6.743000000    -0.367000000
H    -5.583000000    -8.007000000    -1.104000000
O    -4.116000000    -8.261000000    -2.700000000
H    -4.285000000    -8.444000000    -3.625000000
H    -3.850000000    -7.341000000    -2.683000000
O    -7.283000000    -0.561000000    -1.235000000
H    -6.384000000    -0.879000000    -1.146000000
H    -7.655000000    -1.092000000    -1.939000000
O    -3.199000000    -0.712000000    -7.548000000
H    -3.023000000    -1.454000000    -6.969000000
H    -2.382000000    -0.586000000    -8.030000000
O    -3.807000000    -2.823000000    -4.446000000
H    -3.747000000    -2.939000000    -3.498000000
H    -3.899000000    -1.878000000    -4.567000000
O    -4.268000000    -0.216000000    -5.005000000
H    -3.671000000     0.231000000    -4.405000000
H    -3.990000000     0.069000000    -5.876000000
O    -6.974000000    -4.001000000    -2.534000000
H    -7.342000000    -4.573000000    -1.861000000
H    -6.368000000    -3.432000000    -2.059000000
