201
-1222.94536
C    -4.409000000    -0.149000000     3.542000000
H    -4.463000000     0.828000000     4.016000000
C    -3.161000000    -0.787000000     3.520000000
C    -3.057000000    -1.970000000     2.892000000
H    -2.073000000    -2.431000000     2.902000000
C    -1.891000000     0.003000000     3.861000000
O    -2.059000000     1.371000000     4.400000000
H    -1.493000000     0.100000000     2.840000000
O    -1.043000000    -0.786000000     4.659000000
C     0.324000000    -0.740000000     4.546000000
C     0.850000000    -1.880000000     3.976000000
H     0.147000000    -2.640000000     3.646000000
C     2.185000000    -1.919000000     3.573000000
O     2.641000000    -3.089000000     2.996000000
C     2.975000000    -0.734000000     3.789000000
C     4.414000000    -0.692000000     3.320000000
H     4.876000000     0.152000000     3.837000000
C     4.526000000    -0.552000000     1.814000000
C     4.694000000     0.765000000     1.409000000
H     4.804000000     1.524000000     2.180000000
H     4.945000000    -1.615000000     3.561000000
C     2.383000000     0.392000000     4.383000000
H     2.921000000     1.281000000     4.701000000
C     1.098000000     0.404000000     4.809000000
C     0.462000000     1.574000000     5.439000000
H     1.271000000     2.091000000     5.959000000
H    -0.367000000     1.396000000     6.127000000
C     0.054000000     2.444000000     4.272000000
C     0.879000000     3.387000000     3.603000000
H     1.937000000     3.407000000     3.848000000
C    -1.229000000     2.350000000     3.849000000
C    -1.767000000     3.131000000     2.843000000
H    -2.833000000     3.082000000     2.634000000
C    -0.981000000     4.129000000     2.320000000
O    -1.537000000     4.825000000     1.232000000
C    -1.231000000     4.239000000    -0.084000000
C    -2.432000000     4.155000000    -1.011000000
C    -2.231000000     3.809000000    -2.388000000
H    -1.231000000     3.648000000    -2.784000000
C    -3.758000000     4.087000000    -0.458000000
H    -4.074000000     4.469000000     0.509000000
O    -0.094000000     4.935000000    -0.704000000
H    -0.901000000     3.206000000     0.096000000
C     0.339000000     4.194000000     2.628000000
C     1.290000000     5.100000000     1.755000000
H     2.143000000     5.441000000     2.346000000
H     0.748000000     6.008000000     1.483000000
C     1.850000000     4.412000000     0.419000000
C     3.141000000     3.901000000     0.457000000
H     3.659000000     3.832000000     1.409000000
C     1.101000000     4.375000000    -0.748000000
C     1.548000000     3.709000000    -1.893000000
H     0.991000000     3.654000000    -2.825000000
C     2.750000000     2.999000000    -1.776000000
O     3.171000000     2.271000000    -2.797000000
C     3.030000000     0.822000000    -2.633000000
C     2.437000000     0.154000000    -3.900000000
C     1.704000000     0.988000000    -4.818000000
H     1.558000000     2.058000000    -4.690000000
C     2.546000000    -1.246000000    -4.088000000
H     3.114000000    -1.912000000    -3.443000000
O     4.255000000     0.112000000    -2.281000000
H     2.232000000     0.711000000    -1.884000000
C     3.570000000     3.182000000    -0.659000000
C     4.868000000     2.465000000    -0.429000000
H     5.362000000     2.976000000     0.401000000
H     5.652000000     2.525000000    -1.186000000
C     4.655000000     1.078000000     0.016000000
C     4.439000000     0.016000000    -0.904000000
C     4.291000000    -1.290000000    -0.511000000
H     4.078000000    -2.086000000    -1.220000000
C     4.422000000    -1.536000000     0.827000000
O     4.099000000    -2.835000000     1.216000000
C     2.692000000    -3.044000000     1.527000000
H     2.168000000    -2.153000000     1.152000000
C     2.167000000    -4.323000000     0.819000000
C     1.028000000    -5.056000000     1.283000000
H     0.578000000    -4.674000000     2.195000000
C     2.749000000    -4.781000000    -0.343000000
H     3.725000000    -4.421000000    -0.657000000
C     2.242000000    -5.901000000    -1.078000000
O     2.907000000    -6.342000000    -2.139000000
C     1.205000000    -6.609000000    -0.566000000
H     0.698000000    -7.436000000    -1.056000000
C     0.586000000    -6.190000000     0.623000000
O    -0.439000000    -6.905000000     1.071000000
C    -1.472000000    -6.416000000     1.754000000
C    -2.229000000    -5.306000000     1.268000000
H    -2.037000000    -4.923000000     0.269000000
C    -1.691000000    -6.904000000     3.028000000
H    -1.242000000    -7.866000000     3.260000000
C    -2.635000000    -6.340000000     3.827000000
H    -2.777000000    -6.844000000     4.779000000
C    -3.366000000    -5.231000000     3.345000000
H    -4.169000000    -4.780000000     3.922000000
C    -3.261000000    -4.768000000     2.007000000
O    -3.930000000    -3.731000000     1.509000000
C    -4.119000000    -2.602000000     2.234000000
C    -5.319000000    -1.915000000     2.075000000
H    -6.148000000    -2.395000000     1.560000000
C    -5.440000000    -0.720000000     2.752000000
O    -6.685000000    -0.017000000     2.680000000
C    -6.684000000     1.344000000     2.258000000
C    -6.223000000     1.716000000     0.966000000
H    -5.851000000     0.881000000     0.378000000
C    -7.175000000     2.373000000     3.066000000
H    -7.469000000     2.060000000     4.064000000
C    -7.296000000     3.688000000     2.705000000
H    -7.588000000     4.452000000     3.420000000
C    -6.823000000     4.061000000     1.402000000
H    -6.811000000     5.090000000     1.054000000
C    -6.375000000     3.048000000     0.570000000
O    -6.130000000     3.354000000    -0.756000000
C    -4.804000000     3.619000000    -1.241000000
C    -4.564000000     3.174000000    -2.568000000
H    -5.359000000     2.689000000    -3.129000000
C    -3.292000000     3.287000000    -3.144000000
O    -3.153000000     2.871000000    -4.433000000
C    -2.041000000     3.134000000    -5.134000000
C    -1.416000000     2.036000000    -5.735000000
H    -1.648000000     0.990000000    -5.554000000
C    -1.635000000     4.479000000    -5.416000000
H    -2.094000000     5.365000000    -4.985000000
C    -0.467000000     4.636000000    -6.221000000
H    -0.091000000     5.630000000    -6.447000000
C     0.227000000     3.552000000    -6.679000000
H     1.149000000     3.578000000    -7.254000000
C    -0.258000000     2.260000000    -6.467000000
O     0.445000000     1.138000000    -6.821000000
C     1.179000000     0.420000000    -5.982000000
C     1.345000000    -0.954000000    -6.263000000
H     0.885000000    -1.375000000    -7.154000000
C     2.028000000    -1.710000000    -5.262000000
O     2.149000000    -3.050000000    -5.623000000
C     2.998000000    -3.881000000    -4.931000000
C     4.367000000    -3.779000000    -5.059000000
H     4.874000000    -3.065000000    -5.703000000
C     5.153000000    -4.596000000    -4.284000000
H     6.226000000    -4.567000000    -4.452000000
C     4.679000000    -5.487000000    -3.370000000
H     5.447000000    -6.088000000    -2.890000000
C     3.308000000    -5.555000000    -3.184000000
C     2.473000000    -4.692000000    -3.959000000
H     1.426000000    -4.755000000    -3.671000000
O    -8.971000000    -3.840000000    -2.260000000
H    -9.059000000    -2.978000000    -1.854000000
H    -8.107000000    -3.824000000    -2.673000000
O    -3.924000000    -4.338000000    -5.770000000
H    -3.155000000    -4.041000000    -5.284000000
H    -4.306000000    -5.022000000    -5.221000000
O    -7.347000000    -5.396000000     1.262000000
H    -8.303000000    -5.405000000     1.223000000
H    -7.083000000    -4.830000000     0.536000000
O    -3.626000000    -6.385000000    -1.249000000
H    -2.813000000    -6.854000000    -1.440000000
H    -3.418000000    -5.466000000    -1.419000000
O    -1.194000000    -4.999000000    -7.266000000
H    -1.344000000    -4.852000000    -6.332000000
H    -1.606000000    -5.845000000    -7.444000000
O    -6.239000000    -2.571000000    -6.094000000
H    -5.872000000    -1.704000000    -6.268000000
H    -5.561000000    -3.180000000    -6.386000000
O    -2.865000000    -1.795000000    -4.852000000
H    -3.151000000    -2.106000000    -3.993000000
H    -3.598000000    -1.269000000    -5.172000000
O    -5.799000000    -6.047000000    -3.904000000
H    -6.497000000    -6.232000000    -4.533000000
H    -6.028000000    -5.194000000    -3.537000000
O    -6.211000000    -4.090000000    -0.861000000
H    -6.121000000    -4.906000000    -1.353000000
H    -5.526000000    -3.521000000    -1.211000000
O    -8.826000000    -1.250000000    -1.431000000
H    -7.870000000    -1.217000000    -1.457000000
H    -9.099000000    -0.982000000    -2.309000000
O    -1.946000000    -7.763000000    -5.022000000
H    -1.084000000    -8.157000000    -4.888000000
H    -1.987000000    -7.591000000    -5.962000000
O    -5.379000000    -8.157000000    -1.938000000
H    -5.564000000    -8.001000000    -2.864000000
H    -4.740000000    -7.484000000    -1.705000000
O    -1.168000000    -7.772000000    -2.304000000
H    -1.700000000    -7.778000000    -3.100000000
H    -0.265000000    -7.818000000    -2.619000000
O    -6.180000000    -0.968000000    -1.836000000
H    -5.469000000    -1.577000000    -2.036000000
H    -6.128000000    -0.305000000    -2.524000000
O    -2.101000000    -1.906000000    -7.494000000
H    -2.276000000    -1.772000000    -6.563000000
H    -1.784000000    -2.807000000    -7.551000000
O    -1.216000000    -4.219000000    -4.706000000
H    -1.683000000    -4.620000000    -3.972000000
H    -1.027000000    -3.329000000    -4.411000000
O    -5.101000000    -0.172000000    -5.944000000
H    -5.004000000     0.275000000    -6.784000000
H    -5.681000000     0.396000000    -5.436000000
O    -4.502000000    -7.715000000     1.577000000
H    -4.463000000    -6.811000000     1.264000000
H    -3.596000000    -8.021000000     1.540000000
O    -6.742000000    -3.454000000    -3.603000000
H    -7.025000000    -2.893000000    -4.325000000
H    -5.820000000    -3.231000000    -3.474000000
