201
-1232.72714
C    -4.331000000     0.052000000     3.614000000
H    -4.221000000     1.084000000     3.937000000
C    -3.147000000    -0.671000000     3.584000000
C    -3.180000000    -1.938000000     3.075000000
H    -2.310000000    -2.589000000     3.090000000
C    -1.735000000    -0.142000000     3.846000000
O    -2.008000000     1.075000000     4.599000000
H    -1.246000000     0.151000000     2.906000000
O    -0.986000000    -1.115000000     4.590000000
C     0.347000000    -1.202000000     4.331000000
C     0.697000000    -2.346000000     3.613000000
H    -0.022000000    -3.083000000     3.264000000
C     2.060000000    -2.632000000     3.324000000
O     2.415000000    -3.692000000     2.478000000
C     3.011000000    -1.669000000     3.670000000
C     4.435000000    -1.805000000     3.060000000
H     5.149000000    -1.199000000     3.621000000
C     4.491000000    -1.283000000     1.663000000
C     4.756000000     0.067000000     1.450000000
H     4.690000000     0.770000000     2.276000000
H     4.797000000    -2.832000000     3.146000000
C     2.612000000    -0.478000000     4.335000000
H     3.408000000     0.235000000     4.534000000
C     1.302000000    -0.238000000     4.710000000
C     0.875000000     1.025000000     5.482000000
H     1.703000000     1.439000000     6.061000000
H     0.116000000     0.747000000     6.215000000
C     0.231000000     2.110000000     4.571000000
C     1.045000000     3.072000000     3.959000000
H     2.118000000     3.130000000     4.125000000
C    -1.149000000     2.110000000     4.248000000
C    -1.686000000     2.973000000     3.267000000
H    -2.716000000     2.856000000     2.943000000
C    -0.892000000     3.940000000     2.714000000
O    -1.444000000     4.529000000     1.556000000
C    -1.039000000     4.006000000     0.263000000
C    -2.281000000     3.872000000    -0.707000000
C    -1.977000000     3.808000000    -2.083000000
H    -0.992000000     3.608000000    -2.496000000
C    -3.531000000     3.905000000    -0.234000000
H    -3.804000000     4.019000000     0.812000000
O    -0.013000000     4.850000000    -0.227000000
H    -0.582000000     3.017000000     0.413000000
C     0.420000000     4.026000000     3.058000000
C     1.409000000     4.857000000     2.304000000
H     2.208000000     5.128000000     2.996000000
H     0.851000000     5.735000000     1.969000000
C     1.914000000     4.175000000     1.068000000
C     3.096000000     3.440000000     1.114000000
H     3.664000000     3.615000000     2.024000000
C     1.216000000     4.234000000    -0.172000000
C     1.783000000     3.657000000    -1.319000000
H     1.173000000     3.659000000    -2.219000000
C     2.953000000     2.975000000    -1.225000000
O     3.545000000     2.441000000    -2.396000000
C     3.423000000     0.997000000    -2.643000000
C     3.040000000     0.715000000    -4.068000000
C     2.253000000     1.631000000    -4.753000000
H     2.044000000     2.608000000    -4.324000000
C     3.317000000    -0.518000000    -4.615000000
H     3.920000000    -1.266000000    -4.107000000
O     4.599000000     0.272000000    -2.187000000
H     2.554000000     0.616000000    -2.086000000
C     3.645000000     2.786000000     0.038000000
C     4.981000000     2.085000000     0.044000000
H     5.514000000     2.562000000     0.869000000
H     5.611000000     2.374000000    -0.799000000
C     4.858000000     0.602000000     0.148000000
C     4.612000000    -0.239000000    -0.912000000
C     4.417000000    -1.620000000    -0.742000000
H     4.166000000    -2.156000000    -1.654000000
C     4.279000000    -2.107000000     0.542000000
O     3.762000000    -3.437000000     0.653000000
C     2.365000000    -3.550000000     1.050000000
H     1.880000000    -2.581000000     0.865000000
C     1.619000000    -4.621000000     0.249000000
C     0.722000000    -5.562000000     0.843000000
H     0.695000000    -5.648000000     1.926000000
C     1.871000000    -4.805000000    -1.114000000
H     2.539000000    -4.082000000    -1.575000000
C     1.012000000    -5.530000000    -1.989000000
O     1.112000000    -5.390000000    -3.364000000
C     0.093000000    -6.400000000    -1.419000000
H    -0.642000000    -6.953000000    -1.997000000
C    -0.015000000    -6.432000000    -0.007000000
O    -1.220000000    -6.967000000     0.495000000
C    -1.973000000    -6.464000000     1.584000000
C    -2.828000000    -5.417000000     1.346000000
H    -2.887000000    -4.936000000     0.374000000
C    -1.884000000    -7.095000000     2.813000000
H    -1.189000000    -7.888000000     3.076000000
C    -2.694000000    -6.564000000     3.872000000
H    -2.506000000    -6.934000000     4.876000000
C    -3.532000000    -5.456000000     3.682000000
H    -4.193000000    -5.077000000     4.457000000
C    -3.626000000    -4.890000000     2.377000000
O    -4.431000000    -3.785000000     2.103000000
C    -4.368000000    -2.535000000     2.664000000
C    -5.504000000    -1.797000000     2.596000000
H    -6.435000000    -2.162000000     2.168000000
C    -5.451000000    -0.450000000     3.064000000
O    -6.495000000     0.375000000     2.849000000
C    -6.484000000     1.676000000     2.402000000
C    -5.997000000     2.094000000     1.137000000
H    -5.763000000     1.332000000     0.397000000
C    -6.977000000     2.651000000     3.268000000
H    -7.300000000     2.307000000     4.247000000
C    -7.121000000     3.986000000     2.816000000
H    -7.652000000     4.669000000     3.473000000
C    -6.643000000     4.354000000     1.558000000
H    -6.799000000     5.381000000     1.238000000
C    -6.124000000     3.401000000     0.715000000
O    -5.869000000     3.689000000    -0.597000000
C    -4.590000000     3.692000000    -1.129000000
C    -4.396000000     3.522000000    -2.471000000
H    -5.182000000     3.468000000    -3.220000000
C    -3.092000000     3.654000000    -2.944000000
O    -2.925000000     3.297000000    -4.260000000
C    -1.855000000     3.686000000    -5.099000000
C    -0.926000000     2.718000000    -5.585000000
H    -1.105000000     1.666000000    -5.382000000
C    -1.624000000     5.045000000    -5.286000000
H    -2.280000000     5.796000000    -4.855000000
C    -0.512000000     5.470000000    -5.994000000
H    -0.328000000     6.532000000    -6.128000000
C     0.373000000     4.543000000    -6.522000000
H     1.216000000     4.774000000    -7.167000000
C     0.181000000     3.168000000    -6.269000000
O     1.066000000     2.247000000    -6.789000000
C     1.784000000     1.357000000    -6.067000000
C     2.036000000     0.090000000    -6.587000000
H     1.603000000    -0.176000000    -7.547000000
C     2.777000000    -0.925000000    -5.887000000
O     2.946000000    -2.202000000    -6.414000000
C     3.143000000    -3.299000000    -5.612000000
C     4.450000000    -3.852000000    -5.375000000
H     5.270000000    -3.380000000    -5.910000000
C     4.571000000    -4.896000000    -4.488000000
H     5.545000000    -5.315000000    -4.249000000
C     3.457000000    -5.483000000    -3.894000000
H     3.640000000    -6.422000000    -3.378000000
C     2.190000000    -4.911000000    -4.070000000
C     2.042000000    -3.807000000    -4.965000000
H     1.072000000    -3.369000000    -5.184000000
O    -9.659000000    -4.960000000    -1.808000000
H    -8.884000000    -4.658000000    -2.280000000
H    -9.311000000    -5.459000000    -1.069000000
O    -4.926000000    -5.821000000    -3.829000000
H    -4.636000000    -5.158000000    -3.202000000
H    -4.524000000    -5.560000000    -4.657000000
O    -8.101000000    -6.983000000     1.670000000
H    -9.046000000    -6.837000000     1.717000000
H    -7.778000000    -6.287000000     1.098000000
O    -9.307000000    -2.164000000    -3.120000000
H    -8.444000000    -2.573000000    -3.171000000
H    -9.444000000    -2.007000000    -2.186000000
O    -5.429000000    -6.372000000    -0.677000000
H    -4.624000000    -6.737000000    -1.045000000
H    -5.245000000    -5.437000000    -0.580000000
O    -1.268000000    -6.035000000    -5.060000000
H    -1.567000000    -5.181000000    -4.746000000
H    -1.914000000    -6.285000000    -5.721000000
O    -2.735000000    -0.320000000    -3.819000000
H    -2.530000000    -0.631000000    -2.937000000
H    -3.628000000    -0.625000000    -3.979000000
O    -6.661000000    -7.849000000    -4.051000000
H    -6.274000000    -8.710000000    -4.206000000
H    -5.919000000    -7.245000000    -4.076000000
O    -7.599000000    -4.437000000     0.622000000
H    -6.774000000    -3.988000000     0.436000000
H    -7.927000000    -4.014000000     1.416000000
O    -9.274000000    -0.952000000    -0.592000000
H    -8.317000000    -0.929000000    -0.601000000
H    -9.536000000    -0.031000000    -0.616000000
O    -8.440000000    -6.177000000    -4.833000000
H    -8.155000000    -5.394000000    -4.362000000
H    -7.903000000    -6.882000000    -4.472000000
O    -3.415000000    -9.234000000    -0.062000000
H    -2.726000000    -8.634000000     0.223000000
H    -3.732000000    -8.861000000    -0.885000000
O    -7.841000000    -7.333000000    -1.416000000
H    -7.638000000    -7.485000000    -2.339000000
H    -7.003000000    -7.093000000    -1.022000000
O    -3.471000000    -7.486000000    -2.388000000
H    -2.960000000    -7.969000000    -3.037000000
H    -3.783000000    -6.711000000    -2.856000000
O    -6.389000000    -0.740000000    -1.050000000
H    -6.089000000    -1.622000000    -0.828000000
H    -5.910000000    -0.518000000    -1.849000000
O    -2.237000000    -0.933000000    -6.634000000
H    -2.087000000    -0.842000000    -5.693000000
H    -3.155000000    -1.196000000    -6.705000000
O    -2.897000000    -3.680000000    -4.793000000
H    -3.101000000    -3.751000000    -3.860000000
H    -3.670000000    -3.266000000    -5.176000000
O    -5.637000000    -0.383000000    -3.573000000
H    -6.012000000    -0.771000000    -4.364000000
H    -6.066000000     0.470000000    -3.498000000
O    -7.144000000    -4.112000000    -2.675000000
H    -6.756000000    -3.631000000    -1.944000000
H    -6.452000000    -4.707000000    -2.964000000
