201
-1233.86954
C    -4.061000000     1.202000000     3.032000000
H    -3.753000000     2.244000000     3.075000000
C    -3.207000000     0.218000000     3.555000000
C    -3.608000000    -1.079000000     3.588000000
H    -2.954000000    -1.853000000     3.981000000
C    -1.805000000     0.628000000     3.911000000
O    -1.647000000     1.992000000     4.445000000
H    -1.222000000     0.624000000     2.978000000
O    -1.110000000    -0.320000000     4.850000000
C     0.082000000    -0.837000000     4.501000000
C     0.187000000    -2.053000000     3.925000000
H    -0.726000000    -2.644000000     3.901000000
C     1.423000000    -2.459000000     3.417000000
O     1.506000000    -3.695000000     2.799000000
C     2.557000000    -1.730000000     3.692000000
C     3.976000000    -2.111000000     3.291000000
H     4.699000000    -1.607000000     3.935000000
C     4.332000000    -1.838000000     1.847000000
C     4.868000000    -0.639000000     1.504000000
H     5.239000000     0.069000000     2.241000000
H     4.132000000    -3.157000000     3.563000000
C     2.491000000    -0.471000000     4.303000000
H     3.342000000     0.165000000     4.530000000
C     1.220000000    -0.027000000     4.688000000
C     1.109000000     1.385000000     5.251000000
H     2.058000000     1.622000000     5.736000000
H     0.347000000     1.427000000     6.031000000
C     0.689000000     2.483000000     4.224000000
C     1.776000000     3.191000000     3.604000000
H     2.826000000     3.038000000     3.840000000
C    -0.645000000     2.704000000     3.887000000
C    -0.977000000     3.574000000     2.887000000
H    -1.991000000     3.725000000     2.526000000
C     0.104000000     4.194000000     2.189000000
O    -0.185000000     4.910000000     1.032000000
C    -0.042000000     4.115000000    -0.208000000
C    -1.321000000     4.156000000    -1.111000000
C    -1.329000000     3.542000000    -2.369000000
H    -0.386000000     3.098000000    -2.677000000
C    -2.507000000     4.599000000    -0.558000000
H    -2.626000000     5.081000000     0.408000000
O     1.079000000     4.581000000    -0.837000000
H     0.225000000     3.095000000     0.108000000
C     1.417000000     4.032000000     2.532000000
C     2.469000000     4.805000000     1.861000000
H     3.290000000     5.052000000     2.538000000
H     2.086000000     5.790000000     1.586000000
C     2.939000000     3.976000000     0.669000000
C     4.010000000     3.085000000     0.755000000
H     4.402000000     2.978000000     1.763000000
C     2.227000000     3.915000000    -0.521000000
C     2.601000000     3.225000000    -1.639000000
H     2.007000000     3.309000000    -2.546000000
C     3.679000000     2.414000000    -1.549000000
O     4.058000000     1.636000000    -2.619000000
C     3.645000000     0.270000000    -2.587000000
C     2.893000000    -0.110000000    -3.858000000
C     2.381000000     0.810000000    -4.828000000
H     2.549000000     1.874000000    -4.681000000
C     2.486000000    -1.447000000    -3.989000000
H     2.723000000    -2.206000000    -3.248000000
O     4.592000000    -0.724000000    -2.161000000
H     2.909000000     0.090000000    -1.789000000
C     4.329000000     2.258000000    -0.291000000
C     5.417000000     1.179000000    -0.141000000
H     6.164000000     1.499000000     0.588000000
H     5.877000000     1.103000000    -1.129000000
C     4.920000000    -0.232000000     0.195000000
C     4.642000000    -1.132000000    -0.858000000
C     4.240000000    -2.369000000    -0.480000000
H     3.869000000    -3.084000000    -1.209000000
C     3.931000000    -2.659000000     0.813000000
O     3.172000000    -3.768000000     1.008000000
C     1.800000000    -3.611000000     1.363000000
H     1.483000000    -2.599000000     1.074000000
C     0.933000000    -4.539000000     0.607000000
C    -0.373000000    -4.753000000     1.011000000
H    -0.807000000    -4.116000000     1.777000000
C     1.370000000    -5.177000000    -0.587000000
H     2.397000000    -5.085000000    -0.931000000
C     0.593000000    -6.142000000    -1.230000000
O     1.083000000    -6.849000000    -2.322000000
C    -0.721000000    -6.368000000    -0.823000000
H    -1.281000000    -7.089000000    -1.413000000
C    -1.265000000    -5.597000000     0.232000000
O    -2.588000000    -5.764000000     0.529000000
C    -3.254000000    -5.448000000     1.682000000
C    -3.882000000    -4.185000000     1.877000000
H    -3.827000000    -3.469000000     1.061000000
C    -3.434000000    -6.439000000     2.604000000
H    -2.902000000    -7.385000000     2.538000000
C    -4.340000000    -6.311000000     3.633000000
H    -4.401000000    -7.092000000     4.387000000
C    -4.869000000    -5.048000000     3.862000000
H    -5.561000000    -4.914000000     4.689000000
C    -4.589000000    -3.960000000     3.032000000
O    -5.323000000    -2.764000000     3.197000000
C    -4.823000000    -1.472000000     3.121000000
C    -5.705000000    -0.502000000     2.619000000
H    -6.699000000    -0.886000000     2.404000000
C    -5.363000000     0.813000000     2.705000000
O    -6.390000000     1.694000000     2.436000000
C    -6.103000000     2.980000000     2.149000000
C    -5.614000000     3.271000000     0.895000000
H    -5.476000000     2.554000000     0.090000000
C    -6.470000000     3.976000000     3.061000000
H    -6.844000000     3.777000000     4.061000000
C    -6.198000000     5.335000000     2.672000000
H    -6.400000000     6.073000000     3.444000000
C    -5.626000000     5.632000000     1.450000000
H    -5.441000000     6.628000000     1.057000000
C    -5.322000000     4.632000000     0.521000000
O    -4.886000000     4.990000000    -0.702000000
C    -3.704000000     4.538000000    -1.308000000
C    -3.705000000     4.069000000    -2.637000000
H    -4.642000000     4.105000000    -3.188000000
C    -2.471000000     3.499000000    -3.150000000
O    -2.445000000     3.040000000    -4.470000000
C    -1.281000000     3.320000000    -5.241000000
C    -0.490000000     2.233000000    -5.600000000
H    -0.759000000     1.227000000    -5.290000000
C    -1.071000000     4.573000000    -5.880000000
H    -1.748000000     5.411000000    -5.733000000
C    -0.014000000     4.725000000    -6.817000000
H     0.008000000     5.623000000    -7.428000000
C     0.858000000     3.672000000    -6.990000000
H     1.624000000     3.692000000    -7.761000000
C     0.628000000     2.422000000    -6.394000000
O     1.344000000     1.268000000    -6.859000000
C     1.790000000     0.310000000    -5.999000000
C     1.476000000    -1.001000000    -6.137000000
H     0.985000000    -1.414000000    -7.014000000
C     1.776000000    -1.904000000    -5.133000000
O     1.485000000    -3.168000000    -5.408000000
C     2.025000000    -4.259000000    -4.759000000
C     3.282000000    -4.734000000    -5.125000000
H     3.896000000    -4.267000000    -5.891000000
C     3.779000000    -5.948000000    -4.581000000
H     4.728000000    -6.425000000    -4.815000000
C     2.954000000    -6.704000000    -3.776000000
H     3.315000000    -7.677000000    -3.455000000
C     1.673000000    -6.252000000    -3.419000000
C     1.324000000    -4.971000000    -3.823000000
H     0.429000000    -4.516000000    -3.406000000
O    -5.569000000    -7.296000000     0.229000000
H    -5.670000000    -8.086000000    -0.301000000
H    -5.132000000    -6.672000000    -0.351000000
O    -6.326000000    -4.855000000    -3.973000000
H    -7.070000000    -4.799000000    -4.572000000
H    -6.200000000    -5.794000000    -3.833000000
O    -3.420000000    -4.995000000    -4.700000000
H    -4.368000000    -4.931000000    -4.581000000
H    -3.055000000    -4.698000000    -3.866000000
O    -6.643000000    -3.802000000    -0.692000000
H    -7.107000000    -3.312000000    -1.370000000
H    -5.734000000    -3.512000000    -0.766000000
O    -7.118000000     1.343000000    -3.150000000
H    -6.474000000     1.419000000    -3.855000000
H    -7.521000000     2.210000000    -3.100000000
O    -3.403000000    -6.729000000    -7.331000000
H    -3.413000000    -6.069000000    -6.638000000
H    -3.526000000    -7.560000000    -6.872000000
O    -6.993000000    -0.547000000    -5.361000000
H    -6.223000000    -0.218000000    -4.896000000
H    -7.252000000    -1.328000000    -4.871000000
O    -7.783000000    -5.391000000     1.079000000
H    -7.007000000    -5.948000000     1.017000000
H    -7.633000000    -4.700000000     0.433000000
O    -1.811000000    -3.574000000    -7.935000000
H    -1.716000000    -2.933000000    -7.230000000
H    -2.600000000    -4.066000000    -7.706000000
O    -2.554000000    -0.157000000    -3.488000000
H    -1.973000000    -0.860000000    -3.776000000
H    -2.508000000    -0.184000000    -2.532000000
O    -4.593000000    -5.670000000    -1.770000000
H    -5.446000000    -5.336000000    -2.047000000
H    -3.975000000    -4.981000000    -2.015000000
O    -8.752000000    -0.053000000     0.727000000
H    -8.034000000    -0.247000000     0.125000000
H    -8.364000000     0.522000000     1.386000000
O    -4.622000000     0.804000000    -4.794000000
H    -4.035000000     0.580000000    -4.073000000
H    -4.250000000     1.604000000    -5.166000000
O    -6.646000000    -0.369000000    -0.882000000
H    -5.781000000    -0.768000000    -0.967000000
H    -6.736000000     0.176000000    -1.664000000
O    -6.424000000    -7.697000000    -3.757000000
H    -6.071000000    -8.290000000    -3.094000000
H    -5.810000000    -7.762000000    -4.489000000
O    -3.343000000    -7.980000000    -2.221000000
H    -3.601000000    -7.071000000    -2.064000000
H    -3.047000000    -7.991000000    -3.131000000
O    -3.095000000    -1.144000000    -6.147000000
H    -3.367000000    -0.663000000    -6.929000000
H    -3.446000000    -0.633000000    -5.418000000
O    -8.980000000    -0.928000000    -2.861000000
H    -8.314000000    -1.565000000    -2.600000000
H    -8.594000000    -0.078000000    -2.649000000
O    -6.290000000    -2.317000000    -3.233000000
H    -6.097000000    -3.231000000    -3.442000000
H    -5.704000000    -2.110000000    -2.505000000
