201
-1236.39515
C    -3.953000000     1.013000000     3.631000000
H    -3.639000000     2.023000000     3.883000000
C    -3.073000000    -0.100000000     3.575000000
C    -3.630000000    -1.401000000     3.334000000
H    -2.964000000    -2.257000000     3.262000000
C    -1.609000000     0.024000000     3.920000000
O    -1.314000000     1.195000000     4.664000000
H    -1.095000000    -0.018000000     2.949000000
O    -1.027000000    -1.004000000     4.638000000
C     0.231000000    -1.457000000     4.305000000
C     0.287000000    -2.584000000     3.477000000
H    -0.642000000    -3.080000000     3.209000000
C     1.452000000    -2.937000000     2.891000000
O     1.324000000    -4.045000000     2.033000000
C     2.669000000    -2.232000000     3.141000000
C     3.989000000    -2.834000000     2.600000000
H     4.882000000    -2.569000000     3.169000000
C     4.219000000    -2.417000000     1.192000000
C     4.864000000    -1.228000000     0.972000000
H     5.306000000    -0.783000000     1.859000000
H     3.876000000    -3.911000000     2.742000000
C     2.639000000    -1.156000000     4.019000000
H     3.561000000    -0.582000000     4.077000000
C     1.420000000    -0.727000000     4.567000000
C     1.403000000     0.524000000     5.462000000
H     2.358000000     0.919000000     5.816000000
H     0.672000000     0.499000000     6.273000000
C     1.024000000     1.757000000     4.592000000
C     2.033000000     2.536000000     3.974000000
H     3.079000000     2.269000000     4.101000000
C    -0.286000000     2.049000000     4.320000000
C    -0.595000000     3.115000000     3.498000000
H    -1.602000000     3.424000000     3.232000000
C     0.372000000     3.821000000     2.800000000
O    -0.040000000     4.734000000     1.785000000
C     0.153000000     4.224000000     0.438000000
C    -1.080000000     4.666000000    -0.457000000
C    -0.768000000     5.050000000    -1.746000000
H     0.261000000     5.008000000    -2.093000000
C    -2.443000000     4.531000000    -0.100000000
H    -2.694000000     4.128000000     0.878000000
O     1.409000000     4.655000000    -0.079000000
H     0.109000000     3.128000000     0.522000000
C     1.737000000     3.585000000     3.076000000
C     2.852000000     4.209000000     2.313000000
H     3.774000000     4.219000000     2.897000000
H     2.696000000     5.286000000     2.219000000
C     3.158000000     3.378000000     1.024000000
C     4.196000000     2.451000000     0.916000000
H     4.875000000     2.328000000     1.755000000
C     2.435000000     3.740000000    -0.085000000
C     2.767000000     3.217000000    -1.332000000
H     2.252000000     3.551000000    -2.229000000
C     3.699000000     2.188000000    -1.480000000
O     3.698000000     1.530000000    -2.715000000
C     3.209000000     0.187000000    -2.753000000
C     2.379000000    -0.082000000    -4.041000000
C     1.509000000     0.951000000    -4.475000000
H     1.425000000     1.921000000    -3.991000000
C     2.349000000    -1.302000000    -4.663000000
H     3.093000000    -2.050000000    -4.402000000
O     4.311000000    -0.742000000    -2.617000000
H     2.556000000     0.168000000    -1.867000000
C     4.496000000     1.880000000    -0.316000000
C     5.581000000     0.719000000    -0.450000000
H     6.385000000     0.848000000     0.277000000
H     6.031000000     0.721000000    -1.445000000
C     4.953000000    -0.673000000    -0.312000000
C     4.451000000    -1.422000000    -1.392000000
C     3.855000000    -2.659000000    -1.218000000
H     3.301000000    -3.080000000    -2.053000000
C     3.696000000    -3.108000000     0.095000000
O     2.779000000    -4.211000000     0.229000000
C     1.461000000    -3.833000000     0.615000000
H     1.344000000    -2.769000000     0.361000000
C     0.390000000    -4.643000000    -0.090000000
C    -0.834000000    -4.934000000     0.463000000
H    -1.102000000    -4.589000000     1.458000000
C     0.655000000    -5.142000000    -1.363000000
H     1.521000000    -4.668000000    -1.818000000
C    -0.278000000    -5.821000000    -2.093000000
O     0.003000000    -6.176000000    -3.376000000
C    -1.465000000    -6.141000000    -1.437000000
H    -2.223000000    -6.726000000    -1.952000000
C    -1.731000000    -5.818000000    -0.145000000
O    -2.947000000    -6.050000000     0.422000000
C    -3.475000000    -5.524000000     1.545000000
C    -4.290000000    -4.347000000     1.625000000
H    -4.512000000    -3.838000000     0.691000000
C    -3.336000000    -6.261000000     2.720000000
H    -2.738000000    -7.167000000     2.665000000
C    -3.886000000    -5.909000000     3.924000000
H    -3.817000000    -6.429000000     4.876000000
C    -4.575000000    -4.712000000     3.988000000
H    -4.883000000    -4.419000000     4.989000000
C    -4.830000000    -3.983000000     2.803000000
O    -5.515000000    -2.837000000     2.884000000
C    -5.003000000    -1.561000000     3.136000000
C    -5.823000000    -0.436000000     3.035000000
H    -6.887000000    -0.578000000     2.865000000
C    -5.337000000     0.851000000     3.374000000
O    -6.216000000     1.946000000     3.232000000
C    -5.957000000     3.155000000     2.670000000
C    -5.406000000     3.244000000     1.360000000
H    -4.986000000     2.376000000     0.858000000
C    -6.360000000     4.312000000     3.405000000
H    -6.852000000     4.232000000     4.371000000
C    -6.043000000     5.526000000     2.908000000
H    -6.394000000     6.385000000     3.474000000
C    -5.563000000     5.599000000     1.586000000
H    -5.455000000     6.582000000     1.134000000
C    -5.305000000     4.498000000     0.830000000
O    -4.855000000     4.527000000    -0.510000000
C    -3.514000000     4.801000000    -0.949000000
C    -3.136000000     5.256000000    -2.192000000
H    -3.929000000     5.401000000    -2.921000000
C    -1.781000000     5.347000000    -2.574000000
O    -1.510000000     5.759000000    -3.837000000
C    -0.674000000     5.038000000    -4.631000000
C    -0.808000000     3.687000000    -4.912000000
H    -1.585000000     3.099000000    -4.430000000
C     0.411000000     5.689000000    -5.122000000
H     0.569000000     6.730000000    -4.854000000
C     1.415000000     5.011000000    -5.760000000
H     2.275000000     5.582000000    -6.100000000
C     1.280000000     3.693000000    -6.105000000
H     2.042000000     3.229000000    -6.725000000
C     0.086000000     3.036000000    -5.782000000
O    -0.078000000     1.757000000    -6.061000000
C     0.737000000     0.738000000    -5.600000000
C     0.712000000    -0.548000000    -6.207000000
H     0.107000000    -0.819000000    -7.068000000
C     1.538000000    -1.549000000    -5.759000000
O     1.498000000    -2.812000000    -6.419000000
C     1.743000000    -3.945000000    -5.699000000
C     2.998000000    -4.493000000    -5.668000000
H     3.739000000    -4.073000000    -6.343000000
C     3.272000000    -5.644000000    -4.940000000
H     4.318000000    -5.901000000    -5.081000000
C     2.272000000    -6.280000000    -4.270000000
H     2.408000000    -7.185000000    -3.682000000
C     1.035000000    -5.643000000    -4.136000000
C     0.716000000    -4.511000000    -4.944000000
H    -0.282000000    -4.082000000    -4.975000000
O    -2.234000000    -6.288000000    -4.968000000
H    -2.366000000    -5.424000000    -4.580000000
H    -2.162000000    -6.880000000    -4.219000000
O    -6.559000000    -2.500000000    -1.111000000
H    -6.591000000    -1.571000000    -0.884000000
H    -5.731000000    -2.605000000    -1.580000000
O    -4.278000000    -5.976000000    -6.887000000
H    -3.571000000    -5.887000000    -6.247000000
H    -3.937000000    -6.590000000    -7.537000000
O    -3.103000000    -3.457000000    -9.113000000
H    -2.841000000    -4.350000000    -9.335000000
H    -2.650000000    -3.272000000    -8.290000000
O    -3.256000000    -0.397000000    -6.967000000
H    -3.563000000     0.314000000    -7.530000000
H    -4.026000000    -0.951000000    -6.840000000
O    -6.690000000    -5.250000000    -0.526000000
H    -6.361000000    -5.437000000    -1.405000000
H    -6.665000000    -4.296000000    -0.458000000
O    -0.470000000    -4.190000000    -8.280000000
H    -0.272000000    -3.626000000    -9.028000000
H    -0.802000000    -3.591000000    -7.611000000
O    -4.639000000    -0.754000000    -3.075000000
H    -4.379000000    -1.656000000    -2.887000000
H    -3.930000000    -0.409000000    -3.618000000
O    -7.269000000     0.017000000    -5.113000000
H    -7.756000000    -0.532000000    -4.499000000
H    -6.643000000    -0.581000000    -5.522000000
O    -4.946000000    -5.671000000    -2.549000000
H    -5.192000000    -5.481000000    -3.454000000
H    -4.519000000    -4.871000000    -2.244000000
O    -8.530000000    -1.294000000    -3.029000000
H    -8.201000000    -2.177000000    -2.856000000
H    -8.070000000    -0.740000000    -2.399000000
O    -3.057000000     1.826000000    -1.753000000
H    -3.342000000     1.687000000    -2.656000000
H    -2.519000000     1.060000000    -1.551000000
O    -7.536000000    -4.035000000    -4.374000000
H    -7.459000000    -4.669000000    -5.087000000
H    -6.867000000    -3.377000000    -4.564000000
O    -6.631000000     0.177000000    -1.747000000
H    -6.021000000    -0.160000000    -2.404000000
H    -6.371000000     1.091000000    -1.626000000
O    -2.724000000     0.719000000    -4.371000000
H    -1.780000000     0.870000000    -4.316000000
H    -2.904000000     0.663000000    -5.310000000
O    -4.020000000    -8.371000000    -1.494000000
H    -4.457000000    -7.532000000    -1.635000000
H    -3.678000000    -8.611000000    -2.356000000
O    -2.001000000    -2.829000000    -6.535000000
H    -2.496000000    -2.015000000    -6.621000000
H    -2.009000000    -3.017000000    -5.596000000
O    -5.680000000    -1.694000000    -6.721000000
H    -6.151000000    -1.829000000    -7.544000000
H    -5.499000000    -2.578000000    -6.401000000
O    -4.649000000    -3.676000000    -5.198000000
H    -4.223000000    -4.331000000    -5.751000000
H    -4.073000000    -3.593000000    -4.438000000
