201
-1227.28402
C    -4.006000000     1.129000000     4.060000000
H    -3.819000000     2.191000000     4.197000000
C    -2.910000000     0.248000000     3.998000000
C    -3.161000000    -1.145000000     3.842000000
H    -2.421000000    -1.940000000     3.804000000
C    -1.549000000     0.705000000     4.032000000
O    -1.432000000     2.065000000     4.452000000
H    -1.236000000     0.762000000     2.979000000
O    -0.660000000    -0.171000000     4.812000000
C     0.624000000    -0.507000000     4.488000000
C     0.894000000    -1.769000000     4.111000000
H     0.143000000    -2.555000000     4.124000000
C     2.160000000    -2.091000000     3.573000000
O     2.267000000    -3.362000000     3.029000000
C     3.173000000    -1.129000000     3.555000000
C     4.538000000    -1.553000000     2.897000000
H     5.312000000    -0.936000000     3.358000000
C     4.505000000    -1.226000000     1.420000000
C     4.928000000     0.047000000     0.927000000
H     5.257000000     0.850000000     1.582000000
H     4.747000000    -2.619000000     3.005000000
C     2.979000000     0.093000000     4.071000000
H     3.812000000     0.782000000     3.963000000
C     1.660000000     0.502000000     4.430000000
C     1.466000000     1.915000000     4.928000000
H     2.405000000     2.387000000     5.223000000
H     0.842000000     1.997000000     5.820000000
C     0.808000000     2.684000000     3.818000000
C     1.604000000     3.367000000     2.978000000
H     2.670000000     3.166000000     3.050000000
C    -0.530000000     2.828000000     3.701000000
C    -1.061000000     3.638000000     2.675000000
H    -2.142000000     3.696000000     2.578000000
C    -0.240000000     4.142000000     1.691000000
O    -0.852000000     4.741000000     0.580000000
C    -0.704000000     3.989000000    -0.664000000
C    -2.018000000     3.919000000    -1.470000000
C    -2.062000000     3.841000000    -2.849000000
H    -1.141000000     3.870000000    -3.425000000
C    -3.235000000     3.797000000    -0.726000000
H    -3.269000000     3.928000000     0.353000000
O     0.339000000     4.585000000    -1.478000000
H    -0.406000000     2.951000000    -0.455000000
C     1.149000000     4.181000000     1.924000000
C     2.028000000     5.022000000     0.998000000
H     2.971000000     5.349000000     1.441000000
H     1.449000000     5.893000000     0.684000000
C     2.411000000     4.120000000    -0.241000000
C     3.622000000     3.373000000    -0.197000000
H     4.236000000     3.448000000     0.696000000
C     1.610000000     4.081000000    -1.395000000
C     2.023000000     3.226000000    -2.472000000
H     1.478000000     3.067000000    -3.399000000
C     3.224000000     2.530000000    -2.379000000
O     3.477000000     1.683000000    -3.347000000
C     3.165000000     0.267000000    -3.122000000
C     2.401000000    -0.356000000    -4.311000000
C     1.447000000     0.414000000    -5.011000000
H     1.378000000     1.493000000    -4.894000000
C     2.460000000    -1.776000000    -4.497000000
H     3.168000000    -2.333000000    -3.888000000
O     4.311000000    -0.463000000    -2.677000000
H     2.356000000     0.238000000    -2.377000000
C     4.034000000     2.517000000    -1.218000000
C     5.310000000     1.694000000    -1.003000000
H     6.017000000     2.187000000    -0.333000000
H     5.812000000     1.604000000    -1.969000000
C     5.038000000     0.279000000    -0.472000000
C     4.484000000    -0.699000000    -1.320000000
C     4.026000000    -1.888000000    -0.821000000
H     3.591000000    -2.629000000    -1.486000000
C     3.999000000    -2.167000000     0.564000000
O     3.526000000    -3.370000000     1.026000000
C     2.131000000    -3.497000000     1.622000000
H     1.513000000    -2.645000000     1.299000000
C     1.345000000    -4.701000000     1.091000000
C     0.187000000    -5.085000000     1.751000000
H     0.002000000    -4.402000000     2.577000000
C     1.671000000    -5.285000000    -0.155000000
H     2.421000000    -4.765000000    -0.745000000
C     0.777000000    -6.206000000    -0.765000000
O     0.975000000    -6.691000000    -2.006000000
C    -0.324000000    -6.608000000    -0.071000000
H    -1.002000000    -7.326000000    -0.525000000
C    -0.658000000    -6.008000000     1.082000000
O    -1.910000000    -6.189000000     1.682000000
C    -2.386000000    -5.575000000     2.840000000
C    -3.398000000    -4.590000000     2.759000000
H    -3.907000000    -4.393000000     1.820000000
C    -1.875000000    -5.975000000     4.072000000
H    -0.995000000    -6.613000000     4.036000000
C    -2.422000000    -5.442000000     5.274000000
H    -1.937000000    -5.664000000     6.221000000
C    -3.367000000    -4.372000000     5.183000000
H    -3.760000000    -3.809000000     6.026000000
C    -3.808000000    -3.962000000     3.892000000
O    -4.763000000    -2.950000000     3.737000000
C    -4.471000000    -1.608000000     3.752000000
C    -5.542000000    -0.684000000     3.778000000
H    -6.551000000    -1.068000000     3.651000000
C    -5.271000000     0.700000000     3.793000000
O    -6.310000000     1.587000000     3.690000000
C    -6.165000000     2.683000000     2.867000000
C    -6.080000000     2.521000000     1.446000000
H    -6.154000000     1.533000000     1.001000000
C    -5.916000000     3.972000000     3.454000000
H    -5.813000000     4.076000000     4.531000000
C    -5.567000000     5.081000000     2.578000000
H    -5.430000000     6.083000000     2.978000000
C    -5.622000000     4.886000000     1.210000000
H    -5.526000000     5.720000000     0.520000000
C    -5.842000000     3.618000000     0.648000000
O    -5.667000000     3.398000000    -0.656000000
C    -4.457000000     3.611000000    -1.403000000
C    -4.534000000     3.619000000    -2.819000000
H    -5.432000000     3.480000000    -3.416000000
C    -3.323000000     3.853000000    -3.546000000
O    -3.323000000     3.778000000    -4.977000000
C    -2.214000000     3.478000000    -5.763000000
C    -1.882000000     2.143000000    -6.057000000
H    -2.565000000     1.345000000    -5.780000000
C    -1.348000000     4.504000000    -6.122000000
H    -1.737000000     5.510000000    -6.254000000
C    -0.201000000     4.218000000    -6.870000000
H     0.491000000     4.908000000    -7.346000000
C     0.242000000     2.887000000    -6.916000000
H     1.185000000     2.612000000    -7.382000000
C    -0.603000000     1.807000000    -6.525000000
O    -0.315000000     0.501000000    -6.757000000
C     0.568000000    -0.194000000    -5.928000000
C     0.654000000    -1.549000000    -6.094000000
H    -0.118000000    -2.033000000    -6.686000000
C     1.614000000    -2.310000000    -5.414000000
O     1.598000000    -3.670000000    -5.733000000
C     2.105000000    -4.581000000    -4.826000000
C     3.459000000    -5.018000000    -4.887000000
H     4.164000000    -4.565000000    -5.580000000
C     3.943000000    -6.031000000    -4.008000000
H     4.985000000    -6.328000000    -4.094000000
C     3.113000000    -6.649000000    -3.095000000
H     3.500000000    -7.471000000    -2.497000000
C     1.851000000    -6.165000000    -2.964000000
C     1.310000000    -5.237000000    -3.923000000
H     0.241000000    -5.044000000    -3.880000000
O    -8.736000000     0.759000000     1.628000000
H    -8.836000000     1.658000000     1.317000000
H    -8.000000000     0.411000000     1.125000000
O    -7.724000000     1.851000000    -2.583000000
H    -7.987000000     2.565000000    -3.164000000
H    -7.022000000     1.403000000    -3.056000000
O    -4.968000000    -3.413000000    -3.565000000
H    -4.608000000    -2.706000000    -4.102000000
H    -4.552000000    -3.300000000    -2.710000000
O    -7.218000000     0.191000000    -0.568000000
H    -6.414000000    -0.290000000    -0.767000000
H    -7.307000000     0.816000000    -1.287000000
O    -4.374000000    -8.529000000    -1.484000000
H    -4.746000000    -7.758000000    -1.055000000
H    -5.107000000    -8.912000000    -1.966000000
O    -7.603000000    -2.240000000    -4.007000000
H    -7.242000000    -1.366000000    -3.859000000
H    -6.835000000    -2.808000000    -4.071000000
O    -2.229000000    -5.347000000    -2.517000000
H    -2.273000000    -5.063000000    -1.604000000
H    -3.133000000    -5.297000000    -2.827000000
O    -4.394000000    -8.172000000     2.326000000
H    -4.977000000    -8.831000000     1.949000000
H    -4.425000000    -7.442000000     1.707000000
O    -2.249000000     0.570000000    -3.049000000
H    -2.432000000     1.499000000    -2.909000000
H    -2.017000000     0.239000000    -2.181000000
O    -5.893000000     1.538000000    -5.765000000
H    -5.975000000     0.749000000    -6.301000000
H    -5.600000000     1.218000000    -4.912000000
O    -9.677000000    -5.049000000    -1.154000000
H    -9.857000000    -5.893000000    -0.741000000
H    -8.815000000    -4.798000000    -0.821000000
O    -5.094000000    -6.068000000    -0.216000000
H    -5.917000000    -5.796000000    -0.622000000
H    -4.563000000    -5.272000000    -0.195000000
O    -8.258000000    -5.047000000     2.094000000
H    -7.698000000    -4.371000000     1.713000000
H    -9.060000000    -4.584000000     2.337000000
O    -7.074000000    -2.682000000     1.370000000
H    -6.652000000    -2.963000000     0.558000000
H    -6.568000000    -1.919000000     1.651000000
O    -5.596000000    -0.101000000    -3.200000000
H    -5.364000000    -0.600000000    -2.416000000
H    -4.955000000    -0.375000000    -3.856000000
O    -3.565000000    -1.326000000    -4.814000000
H    -3.373000000    -1.187000000    -5.741000000
H    -2.842000000    -0.899000000    -4.354000000
O    -9.708000000    -1.946000000     1.987000000
H    -8.822000000    -2.299000000     1.912000000
H    -9.582000000    -1.004000000     2.099000000
O    -6.606000000    -5.895000000    -3.874000000
H    -6.193000000    -5.051000000    -3.692000000
H    -7.545000000    -5.711000000    -3.860000000
O    -7.117000000    -3.708000000    -1.241000000
H    -7.675000000    -3.369000000    -1.940000000
H    -6.280000000    -3.261000000    -1.364000000
