201
-1231.23141
C    -3.606000000     0.607000000     3.905000000
H    -3.702000000     1.629000000     3.550000000
C    -2.427000000    -0.012000000     4.177000000
C    -2.455000000    -1.357000000     4.696000000
H    -1.536000000    -1.856000000     4.992000000
C    -1.158000000     0.868000000     4.018000000
O    -1.469000000     2.216000000     4.223000000
H    -0.799000000     0.686000000     2.994000000
O    -0.135000000     0.473000000     4.961000000
C     1.117000000     0.304000000     4.338000000
C     1.698000000    -0.963000000     4.248000000
H     1.125000000    -1.824000000     4.583000000
C     2.951000000    -1.065000000     3.659000000
O     3.283000000    -2.260000000     3.122000000
C     3.725000000     0.133000000     3.403000000
C     5.068000000     0.041000000     2.628000000
H     5.784000000     0.807000000     2.932000000
C     4.894000000     0.140000000     1.029000000
C     4.967000000     1.306000000     0.288000000
H     5.175000000     2.199000000     0.871000000
H     5.605000000    -0.866000000     2.915000000
C     3.242000000     1.358000000     3.853000000
H     3.947000000     2.161000000     3.657000000
C     1.904000000     1.475000000     4.283000000
C     1.362000000     2.837000000     4.568000000
H     2.179000000     3.541000000     4.741000000
H     0.856000000     2.858000000     5.535000000
C     0.467000000     3.337000000     3.455000000
C     1.032000000     4.181000000     2.489000000
H     2.114000000     4.277000000     2.531000000
C    -0.876000000     3.087000000     3.409000000
C    -1.666000000     3.613000000     2.373000000
H    -2.747000000     3.503000000     2.358000000
C    -1.143000000     4.473000000     1.400000000
O    -1.861000000     4.619000000     0.304000000
C    -1.590000000     3.760000000    -0.899000000
C    -2.885000000     3.518000000    -1.570000000
C    -2.997000000     3.645000000    -2.942000000
H    -2.209000000     4.115000000    -3.525000000
C    -3.861000000     2.774000000    -0.875000000
H    -3.669000000     2.543000000     0.169000000
O    -0.694000000     4.462000000    -1.749000000
H    -1.133000000     2.811000000    -0.583000000
C     0.276000000     4.767000000     1.463000000
C     1.039000000     5.527000000     0.385000000
H     1.888000000     6.057000000     0.822000000
H     0.388000000     6.238000000    -0.128000000
C     1.533000000     4.582000000    -0.735000000
C     2.862000000     4.114000000    -0.772000000
H     3.544000000     4.512000000    -0.024000000
C     0.632000000     4.078000000    -1.690000000
C     1.103000000     3.266000000    -2.733000000
H     0.332000000     2.896000000    -3.403000000
C     2.412000000     2.842000000    -2.773000000
O     2.659000000     1.902000000    -3.676000000
C     2.745000000     0.506000000    -3.202000000
C     1.830000000    -0.470000000    -3.988000000
C     0.555000000    -0.072000000    -4.422000000
H     0.253000000     0.960000000    -4.265000000
C     2.284000000    -1.757000000    -4.260000000
H     3.239000000    -2.030000000    -3.819000000
O     4.120000000     0.042000000    -2.968000000
H     2.270000000     0.479000000    -2.211000000
C     3.320000000     3.283000000    -1.824000000
C     4.706000000     2.728000000    -1.822000000
H     5.428000000     3.470000000    -1.474000000
H     5.092000000     2.560000000    -2.829000000
C     4.826000000     1.358000000    -1.070000000
C     4.533000000     0.160000000    -1.741000000
C     4.527000000    -1.016000000    -1.055000000
H     4.194000000    -1.915000000    -1.568000000
C     4.651000000    -1.030000000     0.334000000
O     4.339000000    -2.210000000     1.015000000
C     3.094000000    -2.396000000     1.682000000
H     2.458000000    -1.564000000     1.345000000
C     2.411000000    -3.652000000     1.266000000
C     1.280000000    -4.133000000     1.908000000
H     0.927000000    -3.429000000     2.657000000
C     2.798000000    -4.455000000     0.177000000
H     3.690000000    -4.239000000    -0.405000000
C     2.147000000    -5.670000000    -0.174000000
O     2.525000000    -6.534000000    -1.197000000
C     1.049000000    -6.087000000     0.545000000
H     0.489000000    -6.946000000     0.183000000
C     0.557000000    -5.228000000     1.502000000
O    -0.676000000    -5.505000000     2.116000000
C    -1.062000000    -5.224000000     3.417000000
C    -2.138000000    -4.444000000     3.702000000
H    -2.721000000    -4.013000000     2.892000000
C    -0.441000000    -5.813000000     4.482000000
H     0.514000000    -6.319000000     4.371000000
C    -0.840000000    -5.647000000     5.798000000
H    -0.358000000    -6.155000000     6.629000000
C    -1.909000000    -4.768000000     6.061000000
H    -2.187000000    -4.539000000     7.087000000
C    -2.620000000    -4.259000000     4.953000000
O    -3.649000000    -3.425000000     5.232000000
C    -3.658000000    -2.081000000     4.777000000
C    -4.825000000    -1.454000000     4.458000000
H    -5.830000000    -1.859000000     4.543000000
C    -4.766000000    -0.163000000     3.967000000
O    -5.996000000     0.450000000     3.808000000
C    -6.452000000     1.172000000     2.705000000
C    -5.867000000     0.973000000     1.456000000
H    -5.175000000     0.154000000     1.274000000
C    -7.272000000     2.302000000     2.880000000
H    -7.632000000     2.526000000     3.881000000
C    -7.481000000     3.151000000     1.849000000
H    -8.181000000     3.983000000     1.855000000
C    -7.025000000     2.864000000     0.569000000
H    -7.220000000     3.505000000    -0.287000000
C    -6.247000000     1.761000000     0.400000000
O    -5.898000000     1.463000000    -0.867000000
C    -4.972000000     2.251000000    -1.531000000
C    -5.064000000     2.419000000    -2.925000000
H    -5.904000000     1.928000000    -3.410000000
C    -4.066000000     3.059000000    -3.654000000
O    -4.163000000     3.257000000    -4.987000000
C    -3.164000000     2.679000000    -5.823000000
C    -2.673000000     1.459000000    -5.413000000
H    -2.999000000     1.089000000    -4.445000000
C    -2.542000000     3.372000000    -6.826000000
H    -2.781000000     4.422000000    -6.973000000
C    -1.560000000     2.710000000    -7.554000000
H    -1.100000000     3.140000000    -8.440000000
C    -1.063000000     1.446000000    -7.137000000
H    -0.340000000     0.904000000    -7.741000000
C    -1.666000000     0.817000000    -6.154000000
O    -1.317000000    -0.476000000    -5.895000000
C    -0.150000000    -0.913000000    -5.300000000
C     0.241000000    -2.225000000    -5.503000000
H    -0.360000000    -2.865000000    -6.143000000
C     1.473000000    -2.602000000    -4.968000000
O     1.849000000    -3.857000000    -5.166000000
C     2.723000000    -4.548000000    -4.391000000
C     3.930000000    -5.032000000    -4.893000000
H     4.259000000    -4.703000000    -5.875000000
C     4.732000000    -5.961000000    -4.161000000
H     5.655000000    -6.362000000    -4.570000000
C     4.257000000    -6.457000000    -2.915000000
H     4.825000000    -7.136000000    -2.284000000
C     3.069000000    -6.055000000    -2.383000000
C     2.301000000    -5.157000000    -3.210000000
H     1.292000000    -4.922000000    -2.881000000
O    -4.740000000    -4.982000000     1.046000000
H    -4.234000000    -4.206000000     0.805000000
H    -5.179000000    -4.738000000     1.860000000
O    -8.224000000    -2.037000000    -5.664000000
H    -8.608000000    -2.542000000    -4.948000000
H    -8.063000000    -1.171000000    -5.287000000
O    -1.525000000    -5.010000000    -5.014000000
H    -1.029000000    -4.496000000    -4.377000000
H    -2.399000000    -5.087000000    -4.631000000
O    -0.751000000    -6.491000000    -2.032000000
H    -0.866000000    -5.556000000    -2.201000000
H    -1.309000000    -6.921000000    -2.679000000
O    -9.141000000    -3.277000000    -3.678000000
H    -8.670000000    -2.744000000    -3.037000000
H    -9.125000000    -4.161000000    -3.312000000
O    -5.228000000    -0.607000000    -4.355000000
H    -5.839000000     0.130000000    -4.374000000
H    -5.261000000    -0.921000000    -3.451000000
O    -4.278000000    -3.947000000    -3.101000000
H    -4.604000000    -3.263000000    -2.516000000
H    -4.219000000    -3.522000000    -3.957000000
O    -9.005000000     0.379000000     0.817000000
H    -8.194000000     0.812000000     1.083000000
H    -9.423000000     1.000000000     0.220000000
O    -9.516000000    -2.719000000     3.377000000
H   -10.025000000    -3.429000000     2.986000000
H    -8.876000000    -2.485000000     2.705000000
O    -7.478000000    -2.912000000     1.133000000
H    -6.669000000    -2.499000000     0.832000000
H    -7.671000000    -3.574000000     0.468000000
O    -6.723000000    -5.271000000    -0.593000000
H    -6.008000000    -5.039000000    -0.001000000
H    -6.696000000    -6.227000000    -0.638000000
O    -2.854000000    -7.028000000     0.592000000
H    -2.322000000    -6.620000000    -0.092000000
H    -3.525000000    -6.376000000     0.794000000
O    -7.681000000    -1.679000000    -1.900000000
H    -8.214000000    -1.707000000    -1.106000000
H    -6.778000000    -1.725000000    -1.585000000
O    -8.895000000    -5.606000000    -2.336000000
H    -8.757000000    -6.496000000    -2.661000000
H    -8.101000000    -5.405000000    -1.842000000
O    -6.267000000    -4.585000000     3.189000000
H    -6.551000000    -4.808000000     4.076000000
H    -6.837000000    -3.861000000     2.930000000
O    -1.782000000    -3.929000000    -2.226000000
H    -2.708000000    -4.044000000    -2.441000000
H    -1.721000000    -3.029000000    -1.905000000
O    -4.576000000    -2.851000000    -5.695000000
H    -4.937000000    -2.129000000    -5.180000000
H    -4.177000000    -2.427000000    -6.454000000
O    -8.124000000     0.156000000    -3.956000000
H    -7.909000000    -0.275000000    -3.128000000
H    -9.071000000     0.290000000    -3.916000000
O    -4.128000000    -6.619000000    -3.564000000
H    -4.869000000    -7.192000000    -3.366000000
H    -4.207000000    -5.899000000    -2.938000000
