201
-1267.43698
C    -3.765000000    -0.140000000     3.249000000
H    -3.915000000     0.875000000     2.890000000
C    -2.580000000    -0.619000000     3.663000000
C    -2.410000000    -1.988000000     3.994000000
H    -1.425000000    -2.338000000     4.294000000
C    -1.383000000     0.297000000     3.825000000
O    -1.873000000     1.663000000     4.078000000
H    -0.766000000     0.331000000     2.915000000
O    -0.606000000    -0.049000000     4.958000000
C     0.767000000    -0.132000000     4.711000000
C     1.326000000    -1.366000000     4.470000000
H     0.650000000    -2.200000000     4.641000000
C     2.615000000    -1.328000000     3.841000000
O     3.075000000    -2.484000000     3.258000000
C     3.292000000    -0.126000000     3.684000000
C     4.694000000    -0.093000000     2.975000000
H     5.157000000     0.824000000     3.346000000
C     4.678000000    -0.015000000     1.495000000
C     4.868000000     1.256000000     0.921000000
H     5.017000000     2.142000000     1.533000000
H     5.286000000    -0.878000000     3.449000000
C     2.724000000     1.081000000     4.043000000
H     3.257000000     1.991000000     3.782000000
C     1.453000000     1.080000000     4.659000000
C     0.875000000     2.443000000     5.015000000
H     1.573000000     3.230000000     5.309000000
H     0.163000000     2.359000000     5.839000000
C     0.105000000     3.101000000     3.858000000
C     0.794000000     3.990000000     2.987000000
H     1.818000000     4.275000000     3.215000000
C    -1.176000000     2.726000000     3.478000000
C    -1.798000000     3.292000000     2.354000000
H    -2.736000000     2.823000000     2.067000000
C    -1.113000000     4.134000000     1.503000000
O    -1.762000000     4.567000000     0.368000000
C    -1.452000000     3.937000000    -0.886000000
C    -2.686000000     3.528000000    -1.755000000
C    -2.497000000     3.428000000    -3.160000000
H    -1.569000000     3.736000000    -3.635000000
C    -3.911000000     3.037000000    -1.169000000
H    -4.067000000     3.174000000    -0.102000000
O    -0.526000000     4.775000000    -1.630000000
H    -0.974000000     2.961000000    -0.716000000
C     0.199000000     4.533000000     1.808000000
C     0.894000000     5.489000000     0.874000000
H     1.611000000     6.016000000     1.506000000
H     0.242000000     6.275000000     0.487000000
C     1.447000000     4.692000000    -0.320000000
C     2.752000000     4.140000000    -0.178000000
H     3.194000000     4.154000000     0.815000000
C     0.754000000     4.478000000    -1.541000000
C     1.290000000     3.675000000    -2.547000000
H     0.892000000     3.451000000    -3.533000000
C     2.565000000     3.178000000    -2.375000000
O     2.878000000     2.203000000    -3.307000000
C     2.792000000     0.818000000    -2.990000000
C     2.228000000     0.097000000    -4.211000000
C     1.487000000     0.740000000    -5.231000000
H     1.389000000     1.816000000    -5.111000000
C     2.462000000    -1.272000000    -4.307000000
H     3.043000000    -1.752000000    -3.523000000
O     4.143000000     0.348000000    -2.587000000
H     2.080000000     0.619000000    -2.176000000
C     3.340000000     3.389000000    -1.192000000
C     4.709000000     2.813000000    -1.034000000
H     5.296000000     3.486000000    -0.406000000
H     5.171000000     2.810000000    -2.023000000
C     4.637000000     1.393000000    -0.461000000
C     4.435000000     0.215000000    -1.260000000
C     4.341000000    -1.024000000    -0.696000000
H     4.234000000    -1.820000000    -1.428000000
C     4.456000000    -1.152000000     0.693000000
O     4.155000000    -2.455000000     1.208000000
C     2.834000000    -2.538000000     1.831000000
H     2.121000000    -1.763000000     1.513000000
C     2.096000000    -3.780000000     1.356000000
C     1.566000000    -4.637000000     2.300000000
H     1.600000000    -4.505000000     3.379000000
C     1.777000000    -3.990000000    -0.025000000
H     1.989000000    -3.204000000    -0.745000000
C     0.949000000    -5.075000000    -0.416000000
O     0.629000000    -5.286000000    -1.757000000
C     0.636000000    -6.024000000     0.554000000
H     0.041000000    -6.900000000     0.305000000
C     0.835000000    -5.784000000     1.906000000
O     0.408000000    -6.675000000     2.855000000
C    -0.416000000    -6.239000000     3.870000000
C    -1.545000000    -5.437000000     3.587000000
H    -1.827000000    -5.257000000     2.552000000
C    -0.030000000    -6.429000000     5.198000000
H     0.928000000    -6.885000000     5.431000000
C    -0.698000000    -5.701000000     6.233000000
H    -0.361000000    -5.651000000     7.265000000
C    -1.886000000    -4.995000000     5.943000000
H    -2.406000000    -4.471000000     6.741000000
C    -2.295000000    -4.919000000     4.627000000
O    -3.382000000    -4.138000000     4.337000000
C    -3.482000000    -2.834000000     3.943000000
C    -4.708000000    -2.355000000     3.513000000
H    -5.518000000    -3.064000000     3.366000000
C    -4.885000000    -1.028000000     3.173000000
O    -6.085000000    -0.606000000     2.791000000
C    -6.282000000     0.545000000     2.049000000
C    -5.941000000     0.656000000     0.661000000
H    -5.543000000    -0.164000000     0.069000000
C    -6.866000000     1.585000000     2.745000000
H    -7.181000000     1.461000000     3.778000000
C    -7.097000000     2.797000000     2.094000000
H    -7.633000000     3.654000000     2.494000000
C    -6.784000000     2.957000000     0.719000000
H    -6.958000000     3.870000000     0.155000000
C    -6.167000000     1.869000000     0.059000000
O    -5.996000000     1.936000000    -1.348000000
C    -4.818000000     2.431000000    -1.959000000
C    -4.729000000     2.390000000    -3.342000000
H    -5.574000000     2.021000000    -3.917000000
C    -3.578000000     2.847000000    -3.924000000
O    -3.471000000     2.768000000    -5.271000000
C    -2.345000000     2.884000000    -5.983000000
C    -1.616000000     1.717000000    -6.161000000
H    -1.895000000     0.795000000    -5.657000000
C    -1.993000000     4.081000000    -6.576000000
H    -2.663000000     4.911000000    -6.370000000
C    -0.930000000     4.223000000    -7.421000000
H    -0.683000000     5.213000000    -7.796000000
C    -0.141000000     3.071000000    -7.571000000
H     0.784000000     3.081000000    -8.142000000
C    -0.521000000     1.851000000    -7.029000000
O     0.184000000     0.727000000    -7.259000000
C     0.902000000     0.099000000    -6.281000000
C     1.191000000    -1.271000000    -6.406000000
H     0.898000000    -1.814000000    -7.301000000
C     1.995000000    -1.942000000    -5.487000000
O     2.328000000    -3.263000000    -5.701000000
C     2.388000000    -4.236000000    -4.696000000
C     3.611000000    -4.930000000    -4.570000000
H     4.450000000    -4.788000000    -5.246000000
C     3.795000000    -5.836000000    -3.492000000
H     4.702000000    -6.421000000    -3.359000000
C     2.767000000    -5.969000000    -2.551000000
H     2.702000000    -6.724000000    -1.772000000
C     1.636000000    -5.212000000    -2.726000000
C     1.424000000    -4.413000000    -3.797000000
H     0.465000000    -3.914000000    -3.909000000
O    -7.515000000    -4.615000000     0.584000000
H    -8.436000000    -4.363000000     0.509000000
H    -7.036000000    -3.899000000     0.166000000
O    -2.638000000    -3.055000000    -7.193000000
H    -3.476000000    -3.458000000    -7.421000000
H    -2.053000000    -3.795000000    -7.032000000
O    -3.898000000    -8.124000000    -2.306000000
H    -3.250000000    -7.423000000    -2.370000000
H    -4.736000000    -7.669000000    -2.222000000
O    -7.392000000    -4.509000000    -2.852000000
H    -7.076000000    -3.840000000    -3.460000000
H    -8.290000000    -4.244000000    -2.651000000
O    -6.844000000    -0.225000000    -4.917000000
H    -6.332000000    -0.093000000    -5.714000000
H    -7.724000000     0.076000000    -5.145000000
O    -5.373000000    -2.989000000    -3.783000000
H    -4.716000000    -3.024000000    -3.088000000
H    -5.521000000    -2.055000000    -3.927000000
O    -5.785000000    -5.562000000     2.351000000
H    -6.050000000    -5.514000000     3.269000000
H    -6.402000000    -4.991000000     1.893000000
O    -1.859000000    -6.109000000    -2.401000000
H    -2.061000000    -5.704000000    -1.557000000
H    -1.072000000    -5.655000000    -2.702000000
O    -0.358000000    -8.430000000    -3.281000000
H     0.394000000    -8.802000000    -2.819000000
H    -0.726000000    -7.795000000    -2.667000000
O    -5.034000000    -5.574000000    -4.880000000
H    -4.440000000    -5.315000000    -5.584000000
H    -5.338000000    -4.747000000    -4.506000000
O    -6.373000000    -3.046000000    -6.782000000
H    -6.715000000    -3.299000000    -5.924000000
H    -6.473000000    -2.094000000    -6.807000000
O    -6.018000000    -2.790000000    -0.865000000
H    -6.080000000    -3.277000000    -1.686000000
H    -5.127000000    -2.954000000    -0.556000000
O    -5.844000000    -8.208000000    -5.119000000
H    -5.129000000    -8.535000000    -4.574000000
H    -5.769000000    -7.256000000    -5.068000000
O    -2.930000000    -1.516000000    -4.696000000
H    -2.912000000    -2.169000000    -3.996000000
H    -2.575000000    -1.973000000    -5.458000000
O    -1.820000000    -8.628000000    -0.275000000
H    -2.062000000    -8.048000000     0.447000000
H    -2.610000000    -8.682000000    -0.814000000
O    -3.229000000    -6.451000000     0.691000000
H    -4.111000000    -6.668000000     0.992000000
H    -3.316000000    -5.582000000     0.299000000
O    -7.701000000    -0.690000000    -2.074000000
H    -7.112000000    -0.998000000    -1.385000000
H    -7.152000000    -0.647000000    -2.857000000
O    -5.210000000    -5.714000000    -1.512000000
H    -5.884000000    -5.200000000    -1.956000000
H    -4.661000000    -5.062000000    -1.076000000
O    -1.762000000    -5.253000000    -5.410000000
H    -2.329000000    -5.951000000    -5.083000000
H    -2.160000000    -4.447000000    -5.080000000
