201
-1263.57793
C    -3.528000000    -0.228000000     3.391000000
H    -3.724000000     0.831000000     3.241000000
C    -2.378000000    -0.769000000     3.831000000
C    -2.282000000    -2.171000000     3.997000000
H    -1.372000000    -2.596000000     4.414000000
C    -1.202000000     0.146000000     4.017000000
O    -1.599000000     1.475000000     4.498000000
H    -0.785000000     0.247000000     3.005000000
O    -0.230000000    -0.441000000     4.931000000
C     1.062000000    -0.415000000     4.483000000
C     1.566000000    -1.568000000     3.859000000
H     0.963000000    -2.471000000     3.905000000
C     2.811000000    -1.577000000     3.183000000
O     3.345000000    -2.697000000     2.625000000
C     3.590000000    -0.372000000     3.132000000
C     5.005000000    -0.350000000     2.542000000
H     5.686000000     0.270000000     3.128000000
C     4.900000000    -0.072000000     1.077000000
C     4.965000000     1.291000000     0.647000000
H     5.339000000     2.070000000     1.307000000
H     5.400000000    -1.364000000     2.629000000
C     3.102000000     0.727000000     3.783000000
H     3.732000000     1.612000000     3.758000000
C     1.844000000     0.765000000     4.444000000
C     1.264000000     2.032000000     5.042000000
H     2.103000000     2.558000000     5.502000000
H     0.597000000     1.765000000     5.864000000
C     0.461000000     2.816000000     4.065000000
C     1.048000000     3.756000000     3.239000000
H     2.105000000     3.945000000     3.411000000
C    -0.916000000     2.546000000     3.909000000
C    -1.595000000     3.060000000     2.779000000
H    -2.565000000     2.590000000     2.640000000
C    -1.019000000     4.094000000     1.968000000
O    -1.803000000     4.593000000     0.940000000
C    -1.603000000     3.990000000    -0.307000000
C    -2.997000000     3.883000000    -1.091000000
C    -3.158000000     4.007000000    -2.488000000
H    -2.304000000     4.172000000    -3.139000000
C    -4.145000000     3.698000000    -0.297000000
H    -4.041000000     3.656000000     0.784000000
O    -0.712000000     4.799000000    -1.069000000
H    -1.250000000     2.951000000    -0.225000000
C     0.346000000     4.417000000     2.207000000
C     0.981000000     5.415000000     1.310000000
H     1.781000000     5.964000000     1.812000000
H     0.276000000     6.235000000     1.160000000
C     1.444000000     4.713000000     0.090000000
C     2.789000000     4.301000000    -0.019000000
H     3.470000000     4.518000000     0.800000000
C     0.621000000     4.611000000    -1.034000000
C     1.116000000     3.969000000    -2.144000000
H     0.486000000     3.833000000    -3.019000000
C     2.377000000     3.298000000    -2.181000000
O     2.723000000     2.667000000    -3.371000000
C     2.792000000     1.218000000    -3.200000000
C     2.082000000     0.443000000    -4.339000000
C     0.760000000     0.803000000    -4.609000000
H     0.426000000     1.730000000    -4.149000000
C     2.526000000    -0.780000000    -4.785000000
H     3.505000000    -1.128000000    -4.468000000
O     4.100000000     0.760000000    -2.880000000
H     2.273000000     1.071000000    -2.242000000
C     3.265000000     3.516000000    -1.090000000
C     4.696000000     3.031000000    -1.084000000
H     5.237000000     3.720000000    -0.432000000
H     5.189000000     3.117000000    -2.055000000
C     4.799000000     1.613000000    -0.687000000
C     4.424000000     0.565000000    -1.539000000
C     4.386000000    -0.718000000    -1.177000000
H     4.093000000    -1.452000000    -1.922000000
C     4.508000000    -1.046000000     0.143000000
O     4.342000000    -2.430000000     0.459000000
C     3.127000000    -2.763000000     1.182000000
H     2.374000000    -1.983000000     0.992000000
C     2.347000000    -4.004000000     0.701000000
C     1.715000000    -4.902000000     1.600000000
H     1.622000000    -4.641000000     2.651000000
C     2.421000000    -4.360000000    -0.645000000
H     2.987000000    -3.711000000    -1.308000000
C     1.772000000    -5.552000000    -1.147000000
O     1.808000000    -6.029000000    -2.479000000
C     1.080000000    -6.327000000    -0.192000000
H     0.549000000    -7.244000000    -0.437000000
C     1.133000000    -6.046000000     1.131000000
O     0.340000000    -6.780000000     1.957000000
C    -0.276000000    -6.363000000     3.110000000
C    -1.351000000    -5.445000000     3.041000000
H    -1.731000000    -5.065000000     2.097000000
C     0.125000000    -6.823000000     4.391000000
H     0.973000000    -7.503000000     4.380000000
C    -0.623000000    -6.493000000     5.550000000
H    -0.296000000    -6.813000000     6.536000000
C    -1.783000000    -5.655000000     5.409000000
H    -2.351000000    -5.246000000     6.241000000
C    -2.168000000    -5.242000000     4.145000000
O    -3.299000000    -4.443000000     4.026000000
C    -3.305000000    -3.052000000     3.712000000
C    -4.402000000    -2.476000000     3.057000000
H    -5.139000000    -3.150000000     2.628000000
C    -4.430000000    -1.087000000     2.729000000
O    -5.439000000    -0.589000000     1.904000000
C    -5.924000000     0.702000000     1.957000000
C    -6.084000000     1.488000000     0.838000000
H    -5.820000000     1.111000000    -0.147000000
C    -6.358000000     1.185000000     3.222000000
H    -6.408000000     0.517000000     4.077000000
C    -6.887000000     2.464000000     3.326000000
H    -7.005000000     2.769000000     4.363000000
C    -7.020000000     3.307000000     2.186000000
H    -7.312000000     4.347000000     2.309000000
C    -6.691000000     2.746000000     0.928000000
O    -6.546000000     3.563000000    -0.176000000
C    -5.411000000     3.526000000    -0.945000000
C    -5.452000000     3.472000000    -2.330000000
H    -6.405000000     3.254000000    -2.806000000
C    -4.357000000     3.724000000    -3.122000000
O    -4.450000000     3.780000000    -4.482000000
C    -3.503000000     3.309000000    -5.318000000
C    -2.848000000     2.108000000    -5.040000000
H    -3.124000000     1.468000000    -4.206000000
C    -3.171000000     3.933000000    -6.528000000
H    -3.721000000     4.813000000    -6.849000000
C    -2.239000000     3.389000000    -7.440000000
H    -2.231000000     3.797000000    -8.447000000
C    -1.511000000     2.232000000    -7.077000000
H    -0.844000000     1.740000000    -7.779000000
C    -1.870000000     1.590000000    -5.889000000
O    -1.399000000     0.284000000    -5.690000000
C    -0.060000000     0.031000000    -5.450000000
C     0.342000000    -1.191000000    -5.889000000
H    -0.278000000    -1.919000000    -6.406000000
C     1.636000000    -1.554000000    -5.549000000
O     2.086000000    -2.844000000    -5.853000000
C     2.742000000    -3.780000000    -5.098000000
C     4.143000000    -4.105000000    -5.202000000
H     4.718000000    -3.513000000    -5.910000000
C     4.684000000    -5.149000000    -4.475000000
H     5.767000000    -5.228000000    -4.526000000
C     3.876000000    -5.879000000    -3.608000000
H     4.255000000    -6.653000000    -2.946000000
C     2.536000000    -5.500000000    -3.481000000
C     1.953000000    -4.546000000    -4.305000000
H     0.934000000    -4.190000000    -4.180000000
O    -4.896000000    -6.078000000     1.836000000
H    -4.499000000    -6.055000000     2.707000000
H    -5.197000000    -5.182000000     1.686000000
O    -0.898000000    -5.358000000    -6.249000000
H    -1.742000000    -5.807000000    -6.296000000
H    -1.068000000    -4.583000000    -5.714000000
O    -5.661000000    -7.303000000    -0.863000000
H    -5.578000000    -6.546000000    -0.283000000
H    -6.081000000    -7.973000000    -0.325000000
O    -8.731000000    -3.307000000    -4.708000000
H    -7.860000000    -3.491000000    -4.358000000
H    -8.702000000    -3.633000000    -5.607000000
O    -4.261000000    -0.643000000    -5.736000000
H    -4.177000000    -1.593000000    -5.661000000
H    -3.358000000    -0.325000000    -5.767000000
O    -4.324000000    -5.002000000    -2.746000000
H    -4.495000000    -5.520000000    -1.960000000
H    -3.895000000    -4.209000000    -2.423000000
O    -0.902000000    -4.404000000    -2.336000000
H    -1.450000000    -4.473000000    -1.554000000
H    -0.091000000    -4.855000000    -2.100000000
O    -7.788000000    -2.993000000     2.181000000
H    -7.356000000    -2.167000000     1.965000000
H    -8.507000000    -3.058000000     1.553000000
O    -3.158000000    -6.373000000    -5.023000000
H    -3.174000000    -7.318000000    -4.870000000
H    -3.337000000    -5.988000000    -4.165000000
O    -4.229000000    -3.436000000    -6.598000000
H    -3.551000000    -3.603000000    -5.943000000
H    -4.075000000    -4.095000000    -7.275000000
O    -8.263000000    -5.541000000     0.209000000
H    -7.388000000    -5.174000000     0.082000000
H    -8.367000000    -6.166000000    -0.509000000
O    -5.786000000    -4.139000000     0.053000000
H    -6.394000000    -3.471000000    -0.264000000
H    -4.948000000    -3.912000000    -0.350000000
O    -5.758000000    -0.401000000    -2.234000000
H    -5.485000000     0.402000000    -2.680000000
H    -5.119000000    -1.057000000    -2.512000000
O    -1.501000000    -8.434000000     0.023000000
H    -1.781000000    -8.711000000     0.895000000
H    -1.654000000    -7.489000000     0.011000000
O    -2.795000000    -6.017000000     0.272000000
H    -3.575000000    -6.274000000     0.763000000
H    -3.024000000    -5.172000000    -0.117000000
O    -6.170000000    -4.200000000    -4.763000000
H    -5.675000000    -3.776000000    -5.464000000
H    -5.555000000    -4.252000000    -4.032000000
O    -7.274000000    -1.940000000    -0.386000000
H    -6.627000000    -1.325000000    -0.731000000
H    -8.020000000    -1.862000000    -0.981000000
O    -4.464000000    -8.091000000    -3.303000000
H    -4.360000000    -9.043000000    -3.328000000
H    -4.614000000    -7.892000000    -2.379000000
O    -1.867000000    -3.050000000    -4.652000000
H    -1.920000000    -3.603000000    -3.872000000
H    -2.057000000    -2.167000000    -4.333000000
