201
-1260.88501
C    -4.108000000    -0.247000000     3.116000000
H    -4.251000000     0.583000000     2.429000000
C    -2.865000000    -0.336000000     3.855000000
C    -2.660000000    -1.382000000     4.717000000
H    -1.713000000    -1.449000000     5.245000000
C    -1.800000000     0.742000000     3.730000000
O    -2.422000000     2.026000000     3.604000000
H    -1.140000000     0.565000000     2.869000000
O    -0.997000000     0.873000000     4.873000000
C     0.344000000     0.961000000     4.608000000
C     1.127000000    -0.229000000     4.581000000
H     0.744000000    -1.225000000     4.793000000
C     2.470000000    -0.167000000     4.152000000
O     3.017000000    -1.397000000     3.776000000
C     3.057000000     1.046000000     3.847000000
C     4.495000000     1.091000000     3.248000000
H     4.918000000     2.085000000     3.403000000
C     4.456000000     0.965000000     1.701000000
C     4.518000000     2.124000000     0.871000000
H     4.573000000     3.127000000     1.287000000
H     5.110000000     0.263000000     3.606000000
C     2.322000000     2.209000000     3.901000000
H     2.773000000     3.173000000     3.679000000
C     0.923000000     2.170000000     4.308000000
C     0.075000000     3.456000000     4.318000000
H     0.756000000     4.308000000     4.362000000
H    -0.708000000     3.473000000     5.079000000
C    -0.724000000     3.648000000     3.021000000
C    -0.253000000     4.585000000     2.091000000
H     0.670000000     5.121000000     2.295000000
C    -1.860000000     2.915000000     2.681000000
C    -2.478000000     3.178000000     1.501000000
H    -3.461000000     2.838000000     1.187000000
C    -1.992000000     4.046000000     0.580000000
O    -2.694000000     4.195000000    -0.511000000
C    -2.142000000     3.533000000    -1.630000000
C    -3.199000000     2.767000000    -2.492000000
C    -3.118000000     2.815000000    -3.861000000
H    -2.345000000     3.415000000    -4.333000000
C    -4.101000000     1.916000000    -1.883000000
H    -4.068000000     1.642000000    -0.831000000
O    -1.168000000     4.265000000    -2.441000000
H    -1.529000000     2.715000000    -1.222000000
C    -0.835000000     4.747000000     0.863000000
C    -0.081000000     5.552000000    -0.130000000
H     0.584000000     6.175000000     0.470000000
H    -0.640000000     6.309000000    -0.685000000
C     0.701000000     4.720000000    -1.083000000
C     2.078000000     4.402000000    -0.827000000
H     2.539000000     4.719000000     0.105000000
C     0.162000000     4.133000000    -2.215000000
C     0.898000000     3.395000000    -3.118000000
H     0.398000000     2.905000000    -3.950000000
C     2.150000000     3.050000000    -2.832000000
O     2.724000000     2.066000000    -3.577000000
C     2.750000000     0.699000000    -2.846000000
C     2.296000000    -0.408000000    -3.801000000
C     1.437000000    -0.037000000    -4.811000000
H     1.122000000     1.003000000    -4.802000000
C     2.734000000    -1.734000000    -3.755000000
H     3.264000000    -2.131000000    -2.893000000
O     4.152000000     0.421000000    -2.475000000
H     2.116000000     0.718000000    -1.948000000
C     2.802000000     3.584000000    -1.685000000
C     4.260000000     3.252000000    -1.391000000
H     4.751000000     4.108000000    -0.924000000
H     4.768000000     3.053000000    -2.337000000
C     4.304000000     1.964000000    -0.523000000
C     4.376000000     0.677000000    -1.084000000
C     4.431000000    -0.476000000    -0.260000000
H     4.295000000    -1.492000000    -0.622000000
C     4.413000000    -0.301000000     1.099000000
O     4.295000000    -1.430000000     1.816000000
C     3.019000000    -1.760000000     2.389000000
H     2.196000000    -1.246000000     1.871000000
C     2.736000000    -3.245000000     2.211000000
C     1.659000000    -3.741000000     2.861000000
H     1.115000000    -3.077000000     3.528000000
C     3.378000000    -3.988000000     1.212000000
H     4.099000000    -3.605000000     0.494000000
C     2.866000000    -5.238000000     0.876000000
O     3.334000000    -5.994000000    -0.171000000
C     1.882000000    -5.847000000     1.608000000
H     1.688000000    -6.893000000     1.385000000
C     1.246000000    -5.081000000     2.619000000
O     0.218000000    -5.640000000     3.336000000
C    -0.346000000    -5.165000000     4.478000000
C    -1.659000000    -4.727000000     4.472000000
H    -2.177000000    -4.663000000     3.519000000
C     0.394000000    -5.251000000     5.631000000
H     1.404000000    -5.653000000     5.607000000
C    -0.111000000    -4.705000000     6.846000000
H     0.538000000    -4.691000000     7.718000000
C    -1.388000000    -4.124000000     6.804000000
H    -1.754000000    -3.662000000     7.718000000
C    -2.194000000    -4.174000000     5.624000000
O    -3.420000000    -3.525000000     5.577000000
C    -3.591000000    -2.407000000     4.722000000
C    -4.684000000    -2.417000000     3.877000000
H    -5.436000000    -3.189000000     4.011000000
C    -4.960000000    -1.342000000     3.067000000
O    -6.131000000    -1.352000000     2.359000000
C    -6.364000000    -0.380000000     1.428000000
C    -6.096000000    -0.473000000     0.066000000
H    -5.711000000    -1.394000000    -0.365000000
C    -6.897000000     0.783000000     1.918000000
H    -7.067000000     0.871000000     2.988000000
C    -7.079000000     1.904000000     1.132000000
H    -7.355000000     2.849000000     1.593000000
C    -6.719000000     1.834000000    -0.186000000
H    -6.827000000     2.655000000    -0.890000000
C    -6.234000000     0.619000000    -0.737000000
O    -5.918000000     0.394000000    -2.021000000
C    -5.000000000     1.231000000    -2.655000000
C    -4.994000000     1.310000000    -4.047000000
H    -5.687000000     0.740000000    -4.660000000
C    -4.024000000     2.014000000    -4.641000000
O    -3.897000000     2.059000000    -6.003000000
C    -2.699000000     1.806000000    -6.602000000
C    -1.984000000     0.635000000    -6.395000000
H    -2.489000000    -0.097000000    -5.771000000
C    -2.119000000     2.860000000    -7.379000000
H    -2.760000000     3.720000000    -7.556000000
C    -0.825000000     2.736000000    -7.859000000
H    -0.432000000     3.522000000    -8.498000000
C    -0.064000000     1.604000000    -7.560000000
H     0.957000000     1.539000000    -7.927000000
C    -0.680000000     0.521000000    -6.877000000
O    -0.004000000    -0.667000000    -6.711000000
C     0.911000000    -0.975000000    -5.740000000
C     1.380000000    -2.293000000    -5.731000000
H     1.009000000    -3.033000000    -6.435000000
C     2.341000000    -2.628000000    -4.730000000
O     2.636000000    -4.004000000    -4.618000000
C     3.413000000    -4.556000000    -3.587000000
C     4.731000000    -4.892000000    -3.853000000
H     5.052000000    -4.749000000    -4.881000000
C     5.614000000    -5.380000000    -2.893000000
H     6.639000000    -5.606000000    -3.176000000
C     5.146000000    -5.678000000    -1.623000000
H     5.773000000    -6.119000000    -0.852000000
C     3.780000000    -5.460000000    -1.375000000
C     2.935000000    -4.818000000    -2.292000000
H     1.868000000    -4.712000000    -2.110000000
O    -1.634000000    -7.032000000     0.713000000
H    -1.703000000    -6.161000000     1.105000000
H    -2.411000000    -7.108000000     0.160000000
O    -5.992000000    -5.450000000    -4.116000000
H    -6.426000000    -6.211000000    -4.504000000
H    -6.077000000    -4.763000000    -4.777000000
O    -6.057000000    -3.875000000    -6.248000000
H    -6.418000000    -3.480000000    -7.042000000
H    -5.566000000    -3.167000000    -5.831000000
O    -2.144000000    -3.869000000    -6.214000000
H    -1.751000000    -4.521000000    -6.794000000
H    -2.362000000    -4.355000000    -5.419000000
O    -5.951000000    -4.913000000    -1.388000000
H    -5.225000000    -4.300000000    -1.281000000
H    -5.938000000    -5.141000000    -2.317000000
O    -4.066000000    -8.232000000    -3.087000000
H    -4.317000000    -7.929000000    -3.959000000
H    -3.490000000    -8.979000000    -3.249000000
O    -8.550000000    -1.582000000    -2.235000000
H    -8.095000000    -1.363000000    -3.048000000
H    -8.385000000    -0.835000000    -1.660000000
O    -3.035000000    -5.091000000    -3.628000000
H    -2.840000000    -4.185000000    -3.389000000
H    -3.944000000    -5.221000000    -3.359000000
O    -0.952000000    -7.289000000    -4.079000000
H    -1.078000000    -8.120000000    -3.621000000
H    -1.800000000    -6.849000000    -4.013000000
O    -6.218000000    -4.648000000     1.520000000
H    -6.213000000    -4.845000000     0.584000000
H    -7.059000000    -4.215000000     1.670000000
O    -3.259000000    -2.553000000    -8.488000000
H    -3.173000000    -3.015000000    -7.655000000
H    -3.827000000    -1.808000000    -8.291000000
O    -3.470000000    -4.553000000     1.510000000
H    -4.426000000    -4.514000000     1.513000000
H    -3.211000000    -4.014000000     0.762000000
O    -7.466000000    -0.935000000    -4.752000000
H    -7.846000000    -0.820000000    -5.623000000
H    -6.595000000    -1.297000000    -4.917000000
O    -4.945000000    -1.995000000    -4.762000000
H    -4.432000000    -2.015000000    -3.954000000
H    -4.314000000    -1.754000000    -5.440000000
O    -0.979000000    -4.741000000    -1.561000000
H    -1.837000000    -4.592000000    -1.165000000
H    -1.174000000    -5.036000000    -2.451000000
O    -4.216000000    -6.599000000     3.148000000
H    -3.857000000    -5.976000000     2.516000000
H    -3.546000000    -7.278000000     3.223000000
O    -4.047000000    -7.118000000    -0.620000000
H    -4.463000000    -6.256000000    -0.626000000
H    -4.153000000    -7.441000000    -1.515000000
O    -8.826000000    -4.152000000    -1.538000000
H    -8.897000000    -3.246000000    -1.839000000
H    -7.895000000    -4.269000000    -1.348000000
O     1.424000000    -2.482000000    -0.624000000
H     0.880000000    -1.756000000    -0.317000000
H     0.797000000    -3.139000000    -0.928000000
