201
-1246.63026
C    -3.031000000    -0.889000000     4.016000000
H    -3.461000000     0.040000000     3.651000000
C    -1.638000000    -0.837000000     4.236000000
C    -1.045000000    -2.039000000     4.551000000
H     0.030000000    -2.169000000     4.649000000
C    -0.768000000     0.370000000     3.994000000
O    -1.428000000     1.563000000     4.459000000
H    -0.587000000     0.468000000     2.913000000
O     0.482000000     0.233000000     4.718000000
C     1.658000000     0.649000000     4.151000000
C     2.571000000    -0.363000000     3.803000000
H     2.315000000    -1.395000000     4.030000000
C     3.756000000    -0.037000000     3.083000000
O     4.470000000    -1.030000000     2.463000000
C     3.946000000     1.310000000     2.738000000
C     5.004000000     1.678000000     1.706000000
H     5.321000000     2.681000000     1.997000000
C     4.660000000     1.668000000     0.242000000
C     4.168000000     2.788000000    -0.366000000
H     4.081000000     3.691000000     0.233000000
H     5.987000000     1.225000000     1.853000000
C     3.072000000     2.290000000     3.170000000
H     3.197000000     3.294000000     2.772000000
C     1.932000000     2.016000000     3.877000000
C     1.004000000     3.132000000     4.354000000
H     1.505000000     4.098000000     4.435000000
H     0.738000000     2.915000000     5.391000000
C    -0.181000000     3.383000000     3.388000000
C    -0.146000000     4.385000000     2.398000000
H     0.658000000     5.116000000     2.378000000
C    -1.351000000     2.602000000     3.582000000
C    -2.399000000     2.827000000     2.736000000
H    -3.379000000     2.369000000     2.841000000
C    -2.238000000     3.715000000     1.673000000
O    -3.212000000     3.670000000     0.710000000
C    -2.941000000     3.065000000    -0.605000000
C    -4.175000000     2.253000000    -1.088000000
C    -4.334000000     1.869000000    -2.462000000
H    -3.661000000     2.309000000    -3.194000000
C    -5.054000000     1.593000000    -0.211000000
H    -4.957000000     1.842000000     0.842000000
O    -2.575000000     4.063000000    -1.519000000
H    -2.030000000     2.451000000    -0.539000000
C    -1.149000000     4.550000000     1.497000000
C    -0.962000000     5.487000000     0.300000000
H    -0.289000000     6.288000000     0.611000000
H    -1.898000000     5.995000000     0.059000000
C    -0.375000000     4.851000000    -0.935000000
C     1.018000000     4.805000000    -1.025000000
H     1.616000000     5.353000000    -0.302000000
C    -1.194000000     4.114000000    -1.834000000
C    -0.724000000     3.471000000    -2.983000000
H    -1.348000000     2.895000000    -3.661000000
C     0.693000000     3.527000000    -3.084000000
O     1.180000000     2.570000000    -3.960000000
C     1.668000000     1.313000000    -3.584000000
C     1.190000000     0.172000000    -4.532000000
C     0.030000000     0.331000000    -5.281000000
H    -0.611000000     1.181000000    -5.059000000
C     1.828000000    -1.082000000    -4.521000000
H     2.736000000    -1.272000000    -3.955000000
O     3.146000000     1.470000000    -3.644000000
H     1.430000000     1.007000000    -2.555000000
C     1.571000000     4.096000000    -2.087000000
C     3.086000000     4.068000000    -2.261000000
H     3.596000000     4.868000000    -1.721000000
H     3.315000000     4.218000000    -3.318000000
C     3.716000000     2.782000000    -1.709000000
C     3.783000000     1.626000000    -2.466000000
C     4.253000000     0.465000000    -1.829000000
H     4.215000000    -0.520000000    -2.286000000
C     4.692000000     0.443000000    -0.466000000
O     5.039000000    -0.769000000     0.131000000
C     4.086000000    -1.314000000     1.101000000
H     3.107000000    -0.868000000     0.870000000
C     3.927000000    -2.843000000     0.976000000
C     3.485000000    -3.674000000     2.016000000
H     3.250000000    -3.284000000     3.003000000
C     4.102000000    -3.393000000    -0.299000000
H     4.445000000    -2.862000000    -1.183000000
C     3.916000000    -4.766000000    -0.521000000
O     4.395000000    -5.355000000    -1.693000000
C     3.504000000    -5.576000000     0.522000000
H     3.326000000    -6.640000000     0.386000000
C     3.315000000    -5.039000000     1.791000000
O     2.678000000    -5.922000000     2.690000000
C     2.113000000    -5.433000000     3.816000000
C     0.735000000    -5.165000000     3.784000000
H     0.194000000    -5.204000000     2.843000000
C     2.858000000    -5.349000000     5.072000000
H     3.872000000    -5.738000000     5.131000000
C     2.142000000    -4.900000000     6.214000000
H     2.678000000    -4.800000000     7.155000000
C     0.806000000    -4.710000000     6.136000000
H     0.347000000    -4.404000000     7.073000000
C     0.019000000    -4.836000000     4.914000000
O    -1.343000000    -4.461000000     4.921000000
C    -1.788000000    -3.214000000     4.797000000
C    -3.179000000    -3.201000000     4.773000000
H    -3.776000000    -4.101000000     4.892000000
C    -3.891000000    -1.987000000     4.329000000
O    -5.199000000    -2.066000000     4.092000000
C    -6.011000000    -1.002000000     3.610000000
C    -6.153000000    -0.774000000     2.208000000
H    -5.673000000    -1.501000000     1.559000000
C    -6.419000000    -0.016000000     4.495000000
H    -6.148000000    -0.159000000     5.538000000
C    -7.193000000     1.055000000     4.012000000
H    -7.577000000     1.810000000     4.693000000
C    -7.381000000     1.187000000     2.624000000
H    -7.992000000     1.990000000     2.219000000
C    -6.945000000     0.219000000     1.723000000
O    -7.075000000     0.278000000     0.310000000
C    -6.085000000     0.731000000    -0.622000000
C    -6.224000000     0.439000000    -1.985000000
H    -7.090000000    -0.144000000    -2.289000000
C    -5.360000000     1.015000000    -2.873000000
O    -5.651000000     0.741000000    -4.244000000
C    -4.707000000     0.948000000    -5.158000000
C    -3.671000000     0.038000000    -5.330000000
H    -3.595000000    -0.853000000    -4.711000000
C    -4.797000000     2.130000000    -5.947000000
H    -5.660000000     2.790000000    -5.930000000
C    -3.730000000     2.465000000    -6.790000000
H    -3.733000000     3.378000000    -7.379000000
C    -2.727000000     1.508000000    -7.000000000
H    -1.946000000     1.630000000    -7.747000000
C    -2.763000000     0.275000000    -6.354000000
O    -1.752000000    -0.636000000    -6.675000000
C    -0.503000000    -0.737000000    -6.010000000
C     0.173000000    -1.995000000    -5.996000000
H    -0.144000000    -2.848000000    -6.591000000
C     1.312000000    -2.127000000    -5.284000000
O     2.026000000    -3.261000000    -5.411000000
C     3.216000000    -3.589000000    -4.797000000
C     4.368000000    -3.392000000    -5.471000000
H     4.366000000    -2.805000000    -6.386000000
C     5.552000000    -3.953000000    -4.953000000
H     6.480000000    -3.838000000    -5.507000000
C     5.565000000    -4.572000000    -3.643000000
H     6.495000000    -4.975000000    -3.250000000
C     4.366000000    -4.725000000    -2.948000000
C     3.228000000    -4.260000000    -3.605000000
H     2.241000000    -4.546000000    -3.250000000
O    -1.266000000    -6.503000000    -0.662000000
H    -0.490000000    -6.951000000    -0.999000000
H    -1.338000000    -5.713000000    -1.197000000
O    -7.722000000    -3.952000000    -5.442000000
H    -7.430000000    -3.697000000    -4.567000000
H    -7.334000000    -4.817000000    -5.581000000
O    -6.616000000    -2.598000000    -3.418000000
H    -5.781000000    -2.229000000    -3.131000000
H    -6.881000000    -3.176000000    -2.702000000
O    -7.836000000    -5.261000000    -2.227000000
H    -7.711000000    -4.537000000    -1.614000000
H    -8.103000000    -5.997000000    -1.676000000
O    -5.320000000    -8.232000000     0.236000000
H    -5.207000000    -7.348000000    -0.114000000
H    -5.707000000    -8.100000000     1.101000000
O    -9.350000000    -3.245000000     1.658000000
H   -10.162000000    -3.458000000     2.118000000
H    -9.411000000    -2.304000000     1.490000000
O    -3.020000000    -3.584000000    -7.252000000
H    -2.801000000    -3.396000000    -6.339000000
H    -3.863000000    -3.152000000    -7.389000000
O    -1.083000000    -4.707000000    -3.163000000
H    -0.978000000    -5.513000000    -3.669000000
H    -1.381000000    -4.060000000    -3.802000000
O    -3.076000000    -6.949000000    -2.598000000
H    -2.496000000    -7.211000000    -1.883000000
H    -3.871000000    -6.643000000    -2.161000000
O    -7.529000000    -4.125000000     3.536000000
H    -8.114000000    -3.836000000     2.836000000
H    -7.754000000    -5.046000000     3.672000000
O    -4.856000000    -4.897000000     2.011000000
H    -5.381000000    -4.314000000     2.559000000
H    -4.524000000    -4.334000000     1.312000000
O    -8.026000000    -0.737000000    -5.099000000
H    -7.602000000    -1.476000000    -4.664000000
H    -7.401000000    -0.465000000    -5.771000000
O    -5.037000000    -5.629000000    -1.084000000
H    -4.449000000    -4.878000000    -1.016000000
H    -5.695000000    -5.361000000    -1.726000000
O    -5.765000000    -2.618000000    -7.146000000
H    -6.073000000    -1.746000000    -6.897000000
H    -6.135000000    -3.201000000    -6.483000000
O    -2.053000000    -6.432000000     2.057000000
H    -1.744000000    -6.507000000     1.154000000
H    -2.596000000    -5.643000000     2.060000000
O    -7.173000000    -3.148000000    -0.463000000
H    -7.749000000    -3.026000000     0.291000000
H    -6.319000000    -3.353000000    -0.082000000
O    -5.679000000    -7.477000000     2.894000000
H    -5.141000000    -6.715000000     2.680000000
H    -6.565000000    -7.127000000     2.990000000
O    -9.514000000    -1.779000000    -1.671000000
H    -9.881000000    -1.261000000    -0.955000000
H    -8.585000000    -1.863000000    -1.454000000
O    -3.276000000    -3.425000000    -4.342000000
H    -3.640000000    -2.976000000    -3.579000000
H    -3.917000000    -4.106000000    -4.547000000
