201
-1223.39297
C    -2.165000000    -1.558000000     4.110000000
H    -2.674000000    -0.667000000     3.749000000
C    -0.775000000    -1.412000000     4.452000000
C    -0.042000000    -2.551000000     4.874000000
H     1.002000000    -2.540000000     5.178000000
C    -0.239000000    -0.031000000     4.250000000
O    -1.143000000     1.052000000     4.634000000
H     0.057000000     0.190000000     3.214000000
O     0.985000000     0.005000000     4.975000000
C     2.008000000     0.569000000     4.298000000
C     2.893000000    -0.294000000     3.701000000
H     2.898000000    -1.356000000     3.932000000
C     3.881000000     0.171000000     2.818000000
O     4.715000000    -0.695000000     2.052000000
C     3.971000000     1.566000000     2.599000000
C     4.927000000     2.120000000     1.553000000
H     5.337000000     3.088000000     1.849000000
C     4.362000000     2.114000000     0.124000000
C     3.641000000     3.220000000    -0.389000000
H     3.559000000     4.127000000     0.203000000
H     5.833000000     1.514000000     1.612000000
C     3.092000000     2.500000000     3.252000000
H     3.215000000     3.554000000     3.014000000
C     2.027000000     1.945000000     4.020000000
C     1.015000000     2.814000000     4.694000000
H     1.472000000     3.774000000     4.945000000
H     0.740000000     2.479000000     5.696000000
C    -0.130000000     3.086000000     3.750000000
C    -0.193000000     4.131000000     2.752000000
H     0.592000000     4.864000000     2.582000000
C    -1.198000000     2.214000000     3.868000000
C    -2.260000000     2.288000000     3.032000000
H    -3.059000000     1.561000000     3.154000000
C    -2.314000000     3.254000000     2.091000000
O    -3.287000000     3.116000000     1.166000000
C    -3.159000000     2.776000000    -0.260000000
C    -4.329000000     1.893000000    -0.745000000
C    -4.607000000     1.642000000    -2.138000000
H    -4.162000000     2.258000000    -2.915000000
C    -5.022000000     1.163000000     0.287000000
H    -4.787000000     1.269000000     1.343000000
O    -3.049000000     3.958000000    -1.049000000
H    -2.252000000     2.160000000    -0.350000000
C    -1.314000000     4.185000000     1.897000000
C    -1.390000000     5.418000000     0.975000000
H    -0.648000000     6.139000000     1.323000000
H    -2.341000000     5.955000000     0.976000000
C    -0.901000000     4.994000000    -0.431000000
C     0.444000000     5.206000000    -0.852000000
H     1.120000000     5.623000000    -0.110000000
C    -1.724000000     4.279000000    -1.320000000
C    -1.216000000     3.815000000    -2.553000000
H    -1.814000000     3.204000000    -3.223000000
C     0.152000000     3.942000000    -2.844000000
O     0.577000000     3.219000000    -3.936000000
C     1.179000000     1.929000000    -3.584000000
C     0.578000000     0.808000000    -4.454000000
C    -0.497000000     1.088000000    -5.281000000
H    -0.972000000     2.060000000    -5.385000000
C     1.018000000    -0.551000000    -4.333000000
H     1.674000000    -0.890000000    -3.535000000
O     2.615000000     1.961000000    -3.609000000
H     0.871000000     1.678000000    -2.558000000
C     0.984000000     4.606000000    -1.946000000
C     2.518000000     4.563000000    -2.096000000
H     2.988000000     5.362000000    -1.519000000
H     2.782000000     4.720000000    -3.143000000
C     3.172000000     3.288000000    -1.645000000
C     3.175000000     2.076000000    -2.340000000
C     3.817000000     0.956000000    -1.921000000
H     3.775000000     0.098000000    -2.587000000
C     4.469000000     0.970000000    -0.701000000
O     5.004000000    -0.216000000    -0.243000000
C     4.192000000    -0.973000000     0.688000000
H     3.161000000    -0.599000000     0.608000000
C     4.110000000    -2.479000000     0.356000000
C     4.025000000    -3.474000000     1.376000000
H     3.954000000    -3.099000000     2.394000000
C     4.224000000    -2.978000000    -0.957000000
H     4.235000000    -2.224000000    -1.739000000
C     4.257000000    -4.303000000    -1.310000000
O     4.543000000    -4.666000000    -2.576000000
C     4.173000000    -5.262000000    -0.248000000
H     4.344000000    -6.317000000    -0.445000000
C     4.140000000    -4.861000000     1.079000000
O     4.004000000    -5.815000000     2.092000000
C     3.346000000    -5.650000000     3.285000000
C     2.005000000    -5.344000000     3.326000000
H     1.389000000    -5.417000000     2.433000000
C     4.198000000    -5.802000000     4.398000000
H     5.256000000    -6.009000000     4.257000000
C     3.701000000    -5.544000000     5.628000000
H     4.339000000    -5.452000000     6.503000000
C     2.315000000    -5.301000000     5.729000000
H     1.851000000    -5.149000000     6.701000000
C     1.512000000    -5.156000000     4.653000000
O     0.178000000    -4.972000000     4.882000000
C    -0.658000000    -3.811000000     4.762000000
C    -1.991000000    -3.942000000     4.331000000
H    -2.409000000    -4.891000000     4.007000000
C    -2.767000000    -2.809000000     4.095000000
O    -4.091000000    -2.962000000     3.834000000
C    -5.056000000    -2.047000000     3.584000000
C    -5.450000000    -1.733000000     2.283000000
H    -4.921000000    -2.316000000     1.532000000
C    -5.711000000    -1.410000000     4.663000000
H    -5.425000000    -1.560000000     5.701000000
C    -6.709000000    -0.462000000     4.397000000
H    -7.269000000     0.119000000     5.126000000
C    -7.067000000    -0.100000000     3.061000000
H    -7.787000000     0.662000000     2.777000000
C    -6.457000000    -0.783000000     1.967000000
O    -6.841000000    -0.442000000     0.695000000
C    -6.042000000     0.220000000    -0.177000000
C    -6.300000000     0.049000000    -1.539000000
H    -7.044000000    -0.672000000    -1.870000000
C    -5.548000000     0.678000000    -2.534000000
O    -5.830000000     0.355000000    -3.809000000
C    -5.162000000     0.974000000    -4.823000000
C    -3.974000000     0.375000000    -5.294000000
H    -3.636000000    -0.576000000    -4.892000000
C    -5.725000000     2.075000000    -5.489000000
H    -6.729000000     2.469000000    -5.360000000
C    -5.065000000     2.605000000    -6.599000000
H    -5.475000000     3.505000000    -7.050000000
C    -3.893000000     1.937000000    -7.101000000
H    -3.387000000     2.270000000    -8.004000000
C    -3.340000000     0.855000000    -6.461000000
O    -2.119000000     0.262000000    -6.897000000
C    -1.084000000     0.050000000    -6.035000000
C    -0.648000000    -1.264000000    -5.898000000
H    -1.157000000    -2.094000000    -6.383000000
C     0.419000000    -1.547000000    -5.055000000
O     0.833000000    -2.844000000    -4.867000000
C     2.163000000    -3.221000000    -4.879000000
C     3.026000000    -2.550000000    -5.764000000
H     2.606000000    -1.818000000    -6.450000000
C     4.375000000    -2.729000000    -5.676000000
H     5.115000000    -2.274000000    -6.329000000
C     4.867000000    -3.426000000    -4.546000000
H     5.944000000    -3.508000000    -4.419000000
C     3.974000000    -4.080000000    -3.662000000
C     2.625000000    -4.033000000    -3.828000000
H     1.942000000    -4.587000000    -3.190000000
O    -1.496000000    -6.566000000     0.675000000
H    -1.514000000    -7.274000000     0.031000000
H    -2.164000000    -5.951000000     0.374000000
O    -6.773000000    -3.880000000    -1.134000000
H    -6.297000000    -3.859000000    -1.964000000
H    -7.406000000    -3.165000000    -1.202000000
O    -4.515000000    -7.331000000    -4.218000000
H    -3.994000000    -6.881000000    -3.553000000
H    -5.117000000    -7.882000000    -3.718000000
O    -6.878000000    -2.504000000    -4.940000000
H    -7.345000000    -1.950000000    -4.314000000
H    -6.433000000    -3.156000000    -4.399000000
O    -0.666000000    -4.606000000    -2.500000000
H    -0.361000000    -3.709000000    -2.640000000
H    -1.607000000    -4.517000000    -2.346000000
O    -3.622000000    -6.847000000    -1.522000000
H    -3.465000000    -5.903000000    -1.501000000
H    -4.302000000    -6.990000000    -0.863000000
O    -2.312000000    -4.455000000    -5.655000000
H    -1.989000000    -5.245000000    -6.087000000
H    -1.770000000    -4.373000000    -4.870000000
O    -8.909000000    -2.304000000    -1.775000000
H    -9.063000000    -1.546000000    -2.338000000
H    -9.359000000    -3.025000000    -2.216000000
O     0.596000000    -7.006000000    -2.652000000
H    -0.164000000    -7.494000000    -2.968000000
H     0.290000000    -6.102000000    -2.584000000
O    -5.565000000    -9.053000000     0.240000000
H    -5.811000000    -8.144000000     0.069000000
H    -6.299000000    -9.567000000    -0.097000000
O    -5.052000000    -5.233000000     2.294000000
H    -4.465000000    -4.810000000     1.668000000
H    -5.372000000    -4.517000000     2.843000000
O     0.032000000    -8.082000000     2.312000000
H    -0.195000000    -7.227000000     1.947000000
H    -0.730000000    -8.631000000     2.127000000
O    -2.044000000    -8.996000000    -1.847000000
H    -2.447000000    -8.152000000    -1.646000000
H    -2.339000000    -9.198000000    -2.735000000
O    -4.733000000    -5.962000000    -6.422000000
H    -4.507000000    -6.433000000    -5.620000000
H    -3.973000000    -6.083000000    -6.992000000
O    -6.189000000    -6.360000000     0.017000000
H    -6.355000000    -5.729000000    -0.684000000
H    -5.833000000    -5.834000000     0.733000000
O    -3.931000000    -7.475000000     3.184000000
H    -4.518000000    -6.730000000     3.054000000
H    -3.287000000    -7.398000000     2.480000000
O    -4.954000000    -4.039000000    -3.549000000
H    -4.507000000    -4.617000000    -4.167000000
H    -4.416000000    -4.072000000    -2.758000000
O    -8.815000000    -4.449000000     0.598000000
H    -8.045000000    -4.081000000     0.166000000
H    -9.493000000    -4.450000000    -0.078000000
O    -5.086000000    -2.984000000    -6.743000000
H    -5.651000000    -2.651000000    -6.045000000
H    -4.482000000    -3.578000000    -6.299000000
