201
-1224.79941
C    -2.081000000    -1.114000000     3.527000000
H    -2.414000000    -0.265000000     2.935000000
C    -1.062000000    -0.823000000     4.388000000
C    -0.644000000    -1.853000000     5.232000000
H     0.200000000    -1.632000000     5.880000000
C    -0.293000000     0.542000000     4.370000000
O    -1.082000000     1.657000000     4.612000000
H    -0.138000000     0.640000000     3.285000000
O     0.938000000     0.548000000     5.122000000
C     1.982000000     1.017000000     4.501000000
C     2.855000000     0.072000000     3.913000000
H     2.531000000    -0.963000000     3.995000000
C     3.972000000     0.392000000     3.151000000
O     4.583000000    -0.657000000     2.471000000
C     4.085000000     1.722000000     2.789000000
C     5.162000000     2.107000000     1.745000000
H     5.571000000     3.116000000     1.835000000
C     4.531000000     2.046000000     0.394000000
C     3.936000000     3.093000000    -0.213000000
H     3.942000000     3.976000000     0.421000000
H     6.092000000     1.540000000     1.673000000
C     3.222000000     2.707000000     3.282000000
H     3.317000000     3.719000000     2.898000000
C     2.101000000     2.376000000     4.006000000
C     1.145000000     3.494000000     4.320000000
H     1.672000000     4.450000000     4.316000000
H     0.852000000     3.311000000     5.357000000
C    -0.126000000     3.597000000     3.520000000
C    -0.228000000     4.591000000     2.476000000
H     0.615000000     5.224000000     2.214000000
C    -1.150000000     2.639000000     3.702000000
C    -2.254000000     2.681000000     2.875000000
H    -3.114000000     2.032000000     3.016000000
C    -2.283000000     3.651000000     1.834000000
O    -3.327000000     3.525000000     0.965000000
C    -3.162000000     3.033000000    -0.439000000
C    -4.296000000     2.105000000    -0.915000000
C    -4.456000000     2.059000000    -2.313000000
H    -3.818000000     2.655000000    -2.962000000
C    -5.061000000     1.270000000    -0.119000000
H    -4.865000000     1.311000000     0.950000000
O    -2.837000000     4.111000000    -1.310000000
H    -2.218000000     2.472000000    -0.500000000
C    -1.308000000     4.647000000     1.614000000
C    -1.296000000     5.703000000     0.514000000
H    -0.703000000     6.544000000     0.880000000
H    -2.286000000     6.125000000     0.329000000
C    -0.660000000     5.045000000    -0.719000000
C     0.734000000     4.954000000    -0.960000000
H     1.424000000     5.435000000    -0.271000000
C    -1.515000000     4.356000000    -1.583000000
C    -1.008000000     3.602000000    -2.702000000
H    -1.748000000     3.375000000    -3.465000000
C     0.391000000     3.538000000    -2.912000000
O     0.962000000     2.737000000    -3.854000000
C     1.489000000     1.481000000    -3.424000000
C     0.848000000     0.357000000    -4.223000000
C    -0.095000000     0.528000000    -5.208000000
H    -0.333000000     1.527000000    -5.565000000
C     1.190000000    -0.927000000    -3.859000000
H     1.996000000    -0.980000000    -3.131000000
O     2.955000000     1.589000000    -3.455000000
H     1.120000000     1.180000000    -2.432000000
C     1.266000000     4.179000000    -2.009000000
C     2.710000000     4.194000000    -2.180000000
H     3.196000000     5.088000000    -1.783000000
H     2.896000000     4.288000000    -3.252000000
C     3.354000000     2.995000000    -1.507000000
C     3.498000000     1.794000000    -2.231000000
C     4.089000000     0.680000000    -1.594000000
H     4.104000000    -0.285000000    -2.094000000
C     4.588000000     0.850000000    -0.328000000
O     4.950000000    -0.348000000     0.200000000
C     4.086000000    -0.926000000     1.115000000
H     3.086000000    -0.499000000     0.947000000
C     4.049000000    -2.428000000     0.827000000
C     3.385000000    -3.265000000     1.688000000
H     2.907000000    -2.801000000     2.547000000
C     4.512000000    -2.988000000    -0.387000000
H     4.945000000    -2.356000000    -1.158000000
C     4.493000000    -4.416000000    -0.661000000
O     4.808000000    -4.926000000    -1.912000000
C     3.814000000    -5.201000000     0.298000000
H     3.698000000    -6.263000000     0.096000000
C     3.236000000    -4.652000000     1.410000000
O     2.394000000    -5.456000000     2.118000000
C     2.218000000    -5.170000000     3.444000000
C     0.970000000    -4.873000000     3.941000000
H     0.124000000    -4.719000000     3.276000000
C     3.278000000    -5.289000000     4.330000000
H     4.275000000    -5.566000000     3.999000000
C     3.184000000    -5.033000000     5.679000000
H     4.038000000    -5.093000000     6.348000000
C     1.930000000    -4.554000000     6.140000000
H     1.721000000    -4.487000000     7.204000000
C     0.816000000    -4.500000000     5.320000000
O    -0.414000000    -4.092000000     5.833000000
C    -1.157000000    -3.127000000     5.198000000
C    -2.210000000    -3.383000000     4.403000000
H    -2.578000000    -4.397000000     4.273000000
C    -2.682000000    -2.347000000     3.555000000
O    -3.726000000    -2.758000000     2.750000000
C    -4.914000000    -2.155000000     2.684000000
C    -5.239000000    -1.518000000     1.458000000
H    -4.627000000    -1.739000000     0.588000000
C    -5.672000000    -1.965000000     3.820000000
H    -5.439000000    -2.451000000     4.764000000
C    -6.756000000    -1.083000000     3.732000000
H    -7.401000000    -0.965000000     4.599000000
C    -7.193000000    -0.534000000     2.534000000
H    -8.122000000     0.029000000     2.500000000
C    -6.442000000    -0.797000000     1.381000000
O    -6.851000000    -0.296000000     0.141000000
C    -6.047000000     0.494000000    -0.660000000
C    -6.217000000     0.420000000    -2.064000000
H    -7.017000000    -0.165000000    -2.512000000
C    -5.445000000     1.219000000    -2.840000000
O    -5.709000000     1.186000000    -4.218000000
C    -4.757000000     1.441000000    -5.132000000
C    -3.706000000     0.550000000    -5.285000000
H    -3.556000000    -0.084000000    -4.414000000
C    -5.049000000     2.330000000    -6.143000000
H    -5.997000000     2.857000000    -6.213000000
C    -4.292000000     2.277000000    -7.324000000
H    -4.652000000     2.779000000    -8.218000000
C    -3.226000000     1.362000000    -7.477000000
H    -2.638000000     1.293000000    -8.389000000
C    -2.845000000     0.518000000    -6.425000000
O    -1.857000000    -0.421000000    -6.553000000
C    -0.857000000    -0.573000000    -5.556000000
C    -0.551000000    -1.838000000    -5.145000000
H    -1.069000000    -2.633000000    -5.675000000
C     0.510000000    -2.026000000    -4.307000000
O     0.810000000    -3.389000000    -3.993000000
C     2.093000000    -3.851000000    -4.123000000
C     2.657000000    -4.093000000    -5.356000000
H     2.094000000    -3.744000000    -6.217000000
C     3.882000000    -4.806000000    -5.480000000
H     4.339000000    -4.988000000    -6.449000000
C     4.563000000    -5.061000000    -4.270000000
H     5.586000000    -5.423000000    -4.344000000
C     4.052000000    -4.839000000    -3.052000000
C     2.776000000    -4.222000000    -2.971000000
H     2.383000000    -3.931000000    -2.001000000
O     0.134000000    -6.910000000    -1.714000000
H    -0.437000000    -7.360000000    -2.337000000
H    -0.417000000    -6.224000000    -1.337000000
O    -1.487000000    -8.623000000    -2.616000000
H    -1.557000000    -9.397000000    -3.176000000
H    -2.231000000    -8.693000000    -2.017000000
O    -1.979000000    -5.538000000    -3.758000000
H    -2.223000000    -6.314000000    -3.254000000
H    -1.966000000    -4.829000000    -3.115000000
O    -2.864000000    -6.834000000    -0.932000000
H    -2.168000000    -6.229000000    -0.676000000
H    -3.647000000    -6.497000000    -0.497000000
O    -0.019000000    -5.749000000    -6.272000000
H    -0.603000000    -6.508000000    -6.272000000
H    -0.393000000    -5.161000000    -5.615000000
O     1.762000000    -7.787000000    -4.968000000
H     1.490000000    -6.977000000    -5.400000000
H     1.605000000    -8.470000000    -5.620000000
O     2.563000000    -7.727000000    -2.392000000
H     2.595000000    -7.710000000    -3.348000000
H     1.938000000    -7.040000000    -2.161000000
O    -4.520000000    -6.598000000     4.267000000
H    -3.669000000    -6.972000000     4.043000000
H    -4.920000000    -6.390000000     3.423000000
O    -2.005000000    -5.256000000     2.067000000
H    -1.531000000    -5.178000000     1.239000000
H    -2.474000000    -4.426000000     2.153000000
O    -6.257000000    -5.084000000    -2.928000000
H    -6.658000000    -4.284000000    -2.588000000
H    -6.213000000    -4.945000000    -3.874000000
O     1.185000000   -10.166000000    -2.566000000
H     1.408000000    -9.265000000    -2.331000000
H     1.735000000   -10.358000000    -3.326000000
O    -1.493000000    -8.807000000     0.373000000
H    -1.730000000    -8.151000000    -0.283000000
H    -0.793000000    -8.396000000     0.881000000
O     1.196000000    -7.932000000     0.508000000
H     0.998000000    -7.508000000    -0.327000000
H     1.337000000    -7.208000000     1.117000000
O    -3.758000000    -4.119000000    -5.646000000
H    -3.303000000    -4.921000000    -5.390000000
H    -3.257000000    -3.787000000    -6.391000000
O    -5.332000000    -5.350000000     1.799000000
H    -5.076000000    -4.622000000     2.365000000
H    -5.288000000    -4.992000000     0.913000000
O    -1.869000000    -7.688000000     3.590000000
H    -1.667000000    -6.931000000     3.040000000
H    -1.137000000    -8.288000000     3.448000000
O    -4.584000000    -9.971000000    -2.065000000
H    -4.564000000    -9.018000000    -1.978000000
H    -5.510000000   -10.200000000    -1.979000000
O    -4.156000000    -2.414000000    -3.209000000
H    -4.113000000    -2.868000000    -4.051000000
H    -3.732000000    -3.012000000    -2.593000000
O    -4.705000000    -4.834000000    -0.636000000
H    -3.792000000    -4.799000000    -0.919000000
H    -5.210000000    -4.702000000    -1.439000000
