201
-1236.01618
C    -1.493000000    -1.021000000     4.723000000
H    -2.352000000    -0.355000000     4.733000000
C    -0.210000000    -0.464000000     4.473000000
C     0.919000000    -1.213000000     4.526000000
H     1.864000000    -0.754000000     4.249000000
C    -0.061000000     0.995000000     4.018000000
O    -1.253000000     1.821000000     4.382000000
H    -0.118000000     1.037000000     2.921000000
O     1.208000000     1.637000000     4.384000000
C     1.927000000     2.391000000     3.486000000
C     2.974000000     1.747000000     2.949000000
H     3.329000000     0.800000000     3.348000000
C     3.748000000     2.347000000     1.908000000
O     4.693000000     1.640000000     1.198000000
C     3.316000000     3.579000000     1.436000000
C     3.958000000     4.019000000     0.135000000
H     3.919000000     5.109000000     0.171000000
C     3.276000000     3.409000000    -1.146000000
C     2.263000000     4.145000000    -1.786000000
H     1.871000000     5.058000000    -1.344000000
H     5.034000000     3.838000000     0.082000000
C     2.208000000     4.269000000     1.939000000
H     1.900000000     5.169000000     1.413000000
C     1.524000000     3.677000000     2.976000000
C     0.251000000     4.190000000     3.496000000
H     0.321000000     5.279000000     3.463000000
H     0.255000000     3.870000000     4.540000000
C    -1.015000000     3.596000000     2.807000000
C    -1.571000000     4.305000000     1.744000000
H    -0.957000000     5.105000000     1.337000000
C    -1.690000000     2.577000000     3.348000000
C    -2.956000000     2.158000000     2.832000000
H    -3.580000000     1.369000000     3.244000000
C    -3.511000000     2.815000000     1.707000000
O    -4.506000000     2.167000000     0.991000000
C    -4.033000000     1.318000000    -0.070000000
C    -4.798000000     0.017000000    -0.126000000
C    -5.107000000    -0.642000000    -1.301000000
H    -4.976000000    -0.205000000    -2.287000000
C    -5.109000000    -0.679000000     1.075000000
H    -4.918000000    -0.226000000     2.044000000
O    -4.261000000     2.034000000    -1.334000000
H    -2.969000000     1.049000000     0.002000000
C    -2.763000000     3.887000000     1.128000000
C    -3.197000000     4.529000000    -0.203000000
H    -2.894000000     5.578000000    -0.192000000
H    -4.266000000     4.343000000    -0.325000000
C    -2.662000000     3.866000000    -1.417000000
C    -1.492000000     4.416000000    -1.962000000
H    -1.041000000     5.246000000    -1.424000000
C    -3.242000000     2.689000000    -1.968000000
C    -2.581000000     2.050000000    -2.966000000
H    -3.013000000     1.160000000    -3.418000000
C    -1.444000000     2.603000000    -3.486000000
O    -0.839000000     1.933000000    -4.502000000
C     0.231000000     1.061000000    -4.033000000
C     0.087000000    -0.351000000    -4.567000000
C    -1.162000000    -0.747000000    -4.999000000
H    -2.026000000    -0.091000000    -4.927000000
C     1.187000000    -1.161000000    -4.684000000
H     2.156000000    -0.740000000    -4.429000000
O     1.480000000     1.709000000    -4.406000000
H     0.270000000     0.843000000    -2.956000000
C    -0.838000000     3.811000000    -3.019000000
C     0.465000000     4.384000000    -3.537000000
H     0.581000000     5.429000000    -3.241000000
H     0.530000000     4.311000000    -4.625000000
C     1.621000000     3.598000000    -2.906000000
C     2.119000000     2.362000000    -3.403000000
C     3.261000000     1.774000000    -2.905000000
H     3.576000000     0.825000000    -3.331000000
C     3.723000000     2.231000000    -1.666000000
O     4.682000000     1.404000000    -1.091000000
C     4.297000000     0.729000000     0.123000000
H     3.202000000     0.656000000     0.209000000
C     4.934000000    -0.675000000     0.211000000
C     5.468000000    -1.138000000     1.396000000
H     5.387000000    -0.544000000     2.303000000
C     4.865000000    -1.545000000    -0.893000000
H     4.503000000    -1.160000000    -1.842000000
C     5.445000000    -2.819000000    -0.851000000
O     5.445000000    -3.658000000    -1.966000000
C     5.934000000    -3.260000000     0.342000000
H     6.172000000    -4.310000000     0.491000000
C     5.856000000    -2.475000000     1.497000000
O     6.233000000    -2.890000000     2.806000000
C     5.366000000    -2.779000000     3.891000000
C     4.022000000    -3.188000000     3.890000000
H     3.630000000    -3.734000000     3.036000000
C     5.832000000    -2.178000000     5.054000000
H     6.886000000    -1.910000000     5.047000000
C     5.060000000    -1.949000000     6.210000000
H     5.480000000    -1.373000000     7.031000000
C     3.721000000    -2.332000000     6.111000000
H     3.062000000    -2.191000000     6.965000000
C     3.202000000    -2.921000000     4.958000000
O     1.915000000    -3.371000000     5.058000000
C     0.797000000    -2.540000000     4.987000000
C    -0.417000000    -3.070000000     5.318000000
H    -0.287000000    -4.054000000     5.762000000
C    -1.563000000    -2.334000000     5.190000000
O    -2.740000000    -2.927000000     5.564000000
C    -3.932000000    -2.382000000     5.130000000
C    -4.408000000    -2.742000000     3.927000000
H    -3.834000000    -3.432000000     3.313000000
C    -4.639000000    -1.564000000     5.954000000
H    -4.292000000    -1.265000000     6.940000000
C    -5.771000000    -0.913000000     5.505000000
H    -6.233000000    -0.048000000     5.972000000
C    -6.268000000    -1.280000000     4.277000000
H    -7.097000000    -0.701000000     3.878000000
C    -5.617000000    -2.198000000     3.445000000
O    -6.105000000    -2.569000000     2.250000000
C    -5.779000000    -1.893000000     1.026000000
C    -6.056000000    -2.555000000    -0.112000000
H    -6.538000000    -3.524000000    -0.008000000
C    -5.709000000    -1.914000000    -1.295000000
O    -5.894000000    -2.655000000    -2.433000000
C    -5.465000000    -2.318000000    -3.695000000
C    -4.152000000    -2.591000000    -4.184000000
H    -3.435000000    -3.077000000    -3.528000000
C    -6.491000000    -1.781000000    -4.522000000
H    -7.513000000    -1.661000000    -4.170000000
C    -6.199000000    -1.600000000    -5.838000000
H    -6.895000000    -1.212000000    -6.579000000
C    -4.859000000    -1.762000000    -6.276000000
H    -4.579000000    -1.621000000    -7.317000000
C    -3.829000000    -2.186000000    -5.492000000
O    -2.571000000    -2.452000000    -5.991000000
C    -1.307000000    -2.005000000    -5.591000000
C    -0.208000000    -2.868000000    -5.558000000
H    -0.219000000    -3.811000000    -6.097000000
C     1.024000000    -2.483000000    -5.077000000
O     2.123000000    -3.328000000    -5.372000000
C     3.405000000    -3.287000000    -4.980000000
C     4.452000000    -3.115000000    -5.912000000
H     4.040000000    -3.064000000    -6.916000000
C     5.797000000    -2.994000000    -5.586000000
H     6.507000000    -2.819000000    -6.391000000
C     6.042000000    -3.105000000    -4.184000000
H     7.083000000    -3.101000000    -3.874000000
C     5.111000000    -3.320000000    -3.252000000
C     3.770000000    -3.356000000    -3.627000000
H     3.020000000    -3.483000000    -2.850000000
O    -3.582000000    -6.270000000    -1.591000000
H    -3.200000000    -5.778000000    -0.865000000
H    -4.466000000    -6.487000000    -1.295000000
O     1.488000000    -7.142000000     5.864000000
H     1.036000000    -6.654000000     5.176000000
H     2.002000000    -6.482000000     6.328000000
O     0.160000000    -6.411000000    -4.922000000
H    -0.217000000    -6.127000000    -4.089000000
H     1.096000000    -6.503000000    -4.743000000
O    -1.492000000    -9.436000000    -2.449000000
H    -0.541000000    -9.507000000    -2.368000000
H    -1.774000000    -9.040000000    -1.625000000
O    -1.489000000    -8.636000000     3.259000000
H    -0.724000000    -8.278000000     2.810000000
H    -1.939000000    -7.869000000     3.615000000
O    -3.078000000    -9.096000000     0.867000000
H    -2.605000000    -9.469000000     1.611000000
H    -3.216000000    -8.179000000     1.106000000
O     5.623000000    -6.267000000     2.280000000
H     4.693000000    -6.274000000     2.053000000
H     5.726000000    -5.500000000     2.843000000
O     4.322000000    -6.050000000    -1.294000000
H     4.473000000    -5.112000000    -1.403000000
H     5.002000000    -6.466000000    -1.825000000
O    -1.677000000    -5.206000000    -3.120000000
H    -1.327000000    -4.916000000    -2.278000000
H    -2.327000000    -5.870000000    -2.894000000
O     0.414000000    -5.903000000     3.534000000
H     0.592000000    -5.331000000     2.788000000
H    -0.542000000    -5.937000000     3.586000000
O    -4.851000000    -8.038000000    -3.413000000
H    -5.703000000    -8.165000000    -2.996000000
H    -4.414000000    -7.380000000    -2.871000000
O     3.343000000    -5.430000000     1.120000000
H     3.560000000    -5.462000000     0.188000000
H     2.429000000    -5.146000000     1.143000000
O     2.203000000    -7.038000000    -2.564000000
H     2.908000000    -6.731000000    -1.994000000
H     1.400000000    -6.821000000    -2.090000000
O     1.961000000    -9.711000000    -2.804000000
H     2.192000000    -8.788000000    -2.706000000
H     1.962000000   -10.054000000    -1.910000000
O     0.092000000    -7.307000000    -1.056000000
H    -0.066000000    -7.731000000    -0.212000000
H    -0.035000000    -6.374000000    -0.883000000
O    -3.123000000    -4.052000000     0.871000000
H    -3.184000000    -3.141000000     0.586000000
H    -2.332000000    -4.384000000     0.446000000
O     0.771000000    -7.746000000     1.449000000
H     1.503000000    -8.153000000     1.913000000
H     0.949000000    -6.807000000     1.499000000
O    -2.379000000    -6.025000000     3.463000000
H    -2.767000000    -5.938000000     4.334000000
H    -3.108000000    -5.879000000     2.860000000
O    -4.983000000    -5.839000000     2.060000000
H    -4.432000000    -5.162000000     1.668000000
H    -5.647000000    -6.022000000     1.396000000
