201
-1241.28045
C    -3.564000000    -2.336000000     3.508000000
H    -4.201000000    -2.991000000     2.919000000
C    -3.316000000    -0.982000000     3.173000000
C    -2.635000000    -0.172000000     4.146000000
H    -2.401000000     0.863000000     3.909000000
C    -3.720000000    -0.444000000     1.786000000
O    -4.638000000    -1.217000000     1.155000000
H    -2.759000000    -0.469000000     1.252000000
O    -4.243000000     0.882000000     1.964000000
C    -4.001000000     1.828000000     1.069000000
C    -3.098000000     2.803000000     1.517000000
H    -2.641000000     2.741000000     2.502000000
C    -2.523000000     3.764000000     0.621000000
O    -1.598000000     4.600000000     1.067000000
C    -3.026000000     3.796000000    -0.703000000
C    -2.493000000     4.696000000    -1.765000000
H    -3.202000000     4.805000000    -2.589000000
C    -1.226000000     4.148000000    -2.345000000
C    -1.162000000     3.397000000    -3.544000000
H    -2.093000000     3.217000000    -4.077000000
H    -2.192000000     5.639000000    -1.304000000
C    -3.932000000     2.783000000    -1.124000000
H    -4.263000000     2.790000000    -2.160000000
C    -4.446000000     1.844000000    -0.290000000
C    -5.468000000     0.825000000    -0.832000000
H    -6.082000000     1.213000000    -1.648000000
H    -6.175000000     0.656000000    -0.017000000
C    -4.856000000    -0.491000000    -1.141000000
C    -4.418000000    -0.709000000    -2.493000000
H    -4.627000000     0.056000000    -3.237000000
C    -4.468000000    -1.426000000    -0.149000000
C    -3.840000000    -2.622000000    -0.565000000
H    -3.514000000    -3.334000000     0.189000000
C    -3.393000000    -2.723000000    -1.828000000
O    -2.456000000    -3.719000000    -2.004000000
C    -1.082000000    -3.317000000    -1.888000000
C    -0.297000000    -4.281000000    -1.057000000
C     1.067000000    -4.389000000    -1.263000000
H     1.548000000    -3.818000000    -2.054000000
C    -0.892000000    -5.115000000    -0.104000000
H    -1.960000000    -5.026000000     0.079000000
O    -0.676000000    -3.286000000    -3.289000000
H    -1.049000000    -2.321000000    -1.421000000
C    -3.609000000    -1.823000000    -2.800000000
C    -3.108000000    -2.020000000    -4.265000000
H    -3.832000000    -1.510000000    -4.904000000
H    -3.144000000    -3.057000000    -4.605000000
C    -1.687000000    -1.356000000    -4.434000000
C    -1.507000000    -0.050000000    -4.902000000
H    -2.332000000     0.531000000    -5.306000000
C    -0.596000000    -2.117000000    -4.034000000
C     0.712000000    -1.633000000    -4.185000000
H     1.575000000    -2.261000000    -3.980000000
C     0.923000000    -0.356000000    -4.677000000
O     2.194000000     0.093000000    -4.515000000
C     2.467000000     0.963000000    -3.350000000
C     3.858000000     0.637000000    -2.876000000
C     4.414000000    -0.647000000    -3.124000000
H     3.886000000    -1.405000000    -3.697000000
C     4.627000000     1.579000000    -2.219000000
H     4.244000000     2.591000000    -2.109000000
O     2.405000000     2.420000000    -3.644000000
H     1.695000000     0.788000000    -2.585000000
C    -0.170000000     0.442000000    -5.000000000
C    -0.077000000     1.967000000    -5.279000000
H    -0.878000000     2.250000000    -5.964000000
H     0.763000000     2.084000000    -5.967000000
C     0.039000000     2.804000000    -4.018000000
C     1.213000000     3.012000000    -3.328000000
C     1.162000000     3.751000000    -2.174000000
H     2.052000000     3.942000000    -1.580000000
C     0.014000000     4.280000000    -1.643000000
O     0.240000000     4.907000000    -0.439000000
C    -0.219000000     4.226000000     0.765000000
H    -0.307000000     3.165000000     0.490000000
C     0.770000000     4.328000000     1.882000000
C     0.315000000     4.153000000     3.242000000
H    -0.754000000     4.209000000     3.429000000
C     2.129000000     4.375000000     1.694000000
H     2.598000000     4.517000000     0.724000000
C     3.043000000     4.235000000     2.721000000
O     4.372000000     4.073000000     2.568000000
C     2.623000000     4.037000000     4.055000000
H     3.376000000     3.922000000     4.830000000
C     1.273000000     4.089000000     4.272000000
O     0.872000000     3.998000000     5.600000000
C    -0.268000000     3.325000000     5.991000000
C    -0.354000000     1.951000000     5.787000000
H     0.485000000     1.434000000     5.328000000
C    -1.219000000     4.055000000     6.749000000
H    -1.175000000     5.140000000     6.725000000
C    -2.350000000     3.370000000     7.179000000
H    -3.160000000     3.912000000     7.661000000
C    -2.460000000     1.976000000     6.929000000
H    -3.358000000     1.396000000     7.128000000
C    -1.405000000     1.324000000     6.302000000
O    -1.357000000    -0.019000000     6.189000000
C    -2.248000000    -0.716000000     5.344000000
C    -2.413000000    -2.069000000     5.593000000
H    -2.068000000    -2.446000000     6.552000000
C    -3.102000000    -2.874000000     4.698000000
O    -3.178000000    -4.198000000     4.999000000
C    -3.139000000    -5.122000000     3.962000000
C    -1.939000000    -5.509000000     3.371000000
H    -0.989000000    -5.121000000     3.727000000
C    -4.333000000    -5.532000000     3.363000000
H    -5.317000000    -5.193000000     3.678000000
C    -4.322000000    -6.365000000     2.214000000
H    -5.221000000    -6.742000000     1.733000000
C    -3.101000000    -6.785000000     1.700000000
H    -3.021000000    -7.314000000     0.754000000
C    -1.935000000    -6.347000000     2.303000000
O    -0.656000000    -6.559000000     1.761000000
C    -0.121000000    -5.877000000     0.759000000
C     1.261000000    -5.767000000     0.637000000
H     1.829000000    -6.326000000     1.376000000
C     1.835000000    -5.178000000    -0.469000000
O     3.230000000    -5.100000000    -0.535000000
C     3.974000000    -4.842000000    -1.667000000
C     4.923000000    -3.820000000    -1.588000000
H     5.154000000    -3.400000000    -0.613000000
C     3.682000000    -5.414000000    -2.917000000
H     2.878000000    -6.143000000    -2.971000000
C     4.415000000    -5.018000000    -4.025000000
H     4.092000000    -5.430000000    -4.977000000
C     5.291000000    -3.926000000    -3.943000000
H     5.831000000    -3.594000000    -4.826000000
C     5.556000000    -3.336000000    -2.733000000
O     6.308000000    -2.162000000    -2.665000000
C     5.686000000    -0.905000000    -2.593000000
C     6.469000000     0.089000000    -2.078000000
H     7.545000000    -0.041000000    -1.999000000
C     5.941000000     1.292000000    -1.770000000
O     6.689000000     2.388000000    -1.314000000
C     6.280000000     3.408000000    -0.511000000
C     6.750000000     4.713000000    -0.771000000
H     7.403000000     4.876000000    -1.625000000
C     6.299000000     5.798000000     0.037000000
H     6.810000000     6.754000000    -0.040000000
C     5.469000000     5.564000000     1.079000000
H     5.287000000     6.351000000     1.807000000
C     4.972000000     4.279000000     1.379000000
C     5.344000000     3.230000000     0.537000000
H     4.961000000     2.226000000     0.699000000
O     7.720000000    -4.953000000     4.366000000
H     8.293000000    -5.418000000     3.757000000
H     6.995000000    -4.642000000     3.824000000
O     2.625000000    -0.252000000     7.110000000
H     3.233000000    -0.914000000     7.441000000
H     2.384000000    -0.563000000     6.237000000
O     0.389000000    -3.331000000     5.516000000
H     0.195000000    -3.866000000     4.746000000
H     0.831000000    -2.558000000     5.164000000
O     6.239000000    -0.561000000     6.072000000
H     5.832000000     0.217000000     5.690000000
H     5.851000000    -0.630000000     6.945000000
O    -0.568000000    -4.420000000     8.305000000
H     0.067000000    -3.930000000     8.828000000
H    -0.456000000    -4.083000000     7.416000000
O     4.850000000    -6.782000000     2.501000000
H     5.093000000    -5.857000000     2.458000000
H     4.983000000    -7.106000000     1.610000000
O     7.872000000    -1.684000000     4.161000000
H     8.774000000    -1.370000000     4.223000000
H     7.414000000    -1.242000000     4.875000000
O     3.008000000    -4.789000000     7.113000000
H     3.239000000    -5.476000000     6.488000000
H     3.386000000    -3.992000000     6.742000000
O     4.449000000    -0.438000000     1.420000000
H     4.372000000    -1.153000000     2.051000000
H     3.582000000    -0.380000000     1.017000000
O     0.413000000    -0.494000000     8.707000000
H     0.617000000    -1.372000000     9.031000000
H     1.080000000    -0.323000000     8.043000000
O     4.226000000    -2.628000000     5.584000000
H     3.690000000    -2.562000000     4.794000000
H     5.058000000    -2.219000000     5.344000000
O     7.108000000     1.836000000     4.110000000
H     6.155000000     1.797000000     4.019000000
H     7.261000000     1.770000000     5.053000000
O     0.505000000    -6.082000000     5.909000000
H     0.372000000    -5.848000000     6.827000000
H     1.259000000    -5.561000000     5.635000000
O     3.544000000    -6.999000000     5.247000000
H     4.407000000    -7.228000000     4.904000000
H     3.126000000    -6.511000000     4.537000000
O     5.557000000    -4.044000000     2.494000000
H     5.881000000    -3.679000000     1.671000000
H     4.867000000    -3.440000000     2.769000000
O     7.313000000     0.276000000     1.619000000
H     6.457000000    -0.111000000     1.431000000
H     7.240000000     0.593000000     2.519000000
O     2.277000000    -4.852000000     3.510000000
H     2.071000000    -5.095000000     2.607000000
H     2.760000000    -4.029000000     3.432000000
O     4.639000000    -1.989000000     7.995000000
H     5.070000000    -2.781000000     8.317000000
H     4.455000000    -2.173000000     7.074000000
O     4.254000000     0.615000000     4.598000000
H     3.998000000     1.129000000     3.832000000
H     3.631000000    -0.112000000     4.618000000
