201
-1237.28125
C    -1.854000000    -0.862000000     4.818000000
H    -2.769000000    -0.275000000     4.793000000
C    -0.606000000    -0.250000000     4.658000000
C     0.507000000    -1.040000000     4.844000000
H     1.485000000    -0.642000000     4.586000000
C    -0.466000000     1.113000000     4.087000000
O    -1.508000000     2.013000000     4.337000000
H    -0.287000000     0.956000000     3.013000000
O     0.748000000     1.661000000     4.665000000
C     1.493000000     2.431000000     3.764000000
C     2.620000000     1.811000000     3.214000000
H     2.931000000     0.874000000     3.669000000
C     3.328000000     2.303000000     2.130000000
O     4.347000000     1.584000000     1.595000000
C     2.917000000     3.460000000     1.581000000
C     3.713000000     4.055000000     0.434000000
H     3.721000000     5.145000000     0.507000000
C     3.095000000     3.539000000    -0.900000000
C     2.152000000     4.237000000    -1.749000000
H     1.817000000     5.228000000    -1.455000000
H     4.771000000     3.786000000     0.416000000
C     1.738000000     4.152000000     2.012000000
H     1.521000000     5.184000000     1.746000000
C     1.055000000     3.626000000     3.120000000
C    -0.224000000     4.435000000     3.496000000
H    -0.074000000     5.492000000     3.268000000
H    -0.252000000     4.364000000     4.585000000
C    -1.472000000     3.917000000     2.771000000
C    -1.944000000     4.494000000     1.579000000
H    -1.483000000     5.372000000     1.135000000
C    -2.068000000     2.727000000     3.297000000
C    -3.136000000     2.154000000     2.659000000
H    -3.666000000     1.283000000     3.036000000
C    -3.645000000     2.730000000     1.502000000
O    -4.520000000     1.947000000     0.773000000
C    -4.094000000     1.211000000    -0.376000000
C    -4.792000000    -0.172000000    -0.480000000
C    -4.981000000    -0.821000000    -1.722000000
H    -4.645000000    -0.331000000    -2.633000000
C    -5.256000000    -0.862000000     0.692000000
H    -5.337000000    -0.368000000     1.657000000
O    -4.254000000     1.913000000    -1.610000000
H    -3.038000000     0.907000000    -0.328000000
C    -3.016000000     3.830000000     0.928000000
C    -3.486000000     4.392000000    -0.358000000
H    -3.328000000     5.471000000    -0.305000000
H    -4.565000000     4.339000000    -0.518000000
C    -2.694000000     3.762000000    -1.589000000
C    -1.528000000     4.304000000    -2.127000000
H    -1.174000000     5.214000000    -1.650000000
C    -3.216000000     2.608000000    -2.190000000
C    -2.531000000     1.991000000    -3.192000000
H    -2.921000000     1.056000000    -3.585000000
C    -1.320000000     2.489000000    -3.694000000
O    -0.699000000     1.611000000    -4.610000000
C     0.498000000     0.975000000    -4.183000000
C     0.563000000    -0.411000000    -4.757000000
C    -0.536000000    -1.196000000    -4.827000000
H    -1.521000000    -0.891000000    -4.482000000
C     1.810000000    -1.034000000    -5.034000000
H     2.699000000    -0.412000000    -4.962000000
O     1.605000000     1.794000000    -4.410000000
H     0.549000000     0.826000000    -3.095000000
C    -0.787000000     3.701000000    -3.192000000
C     0.570000000     4.304000000    -3.681000000
H     0.518000000     5.391000000    -3.596000000
H     0.719000000     4.175000000    -4.755000000
C     1.730000000     3.670000000    -2.903000000
C     2.177000000     2.399000000    -3.311000000
C     3.305000000     1.831000000    -2.680000000
H     3.703000000     0.870000000    -2.994000000
C     3.678000000     2.412000000    -1.473000000
O     4.598000000     1.588000000    -0.796000000
C     4.085000000     0.835000000     0.414000000
H     3.010000000     0.652000000     0.270000000
C     4.803000000    -0.465000000     0.548000000
C     5.207000000    -1.101000000     1.744000000
H     5.173000000    -0.561000000     2.687000000
C     4.768000000    -1.247000000    -0.627000000
H     4.444000000    -0.817000000    -1.571000000
C     5.196000000    -2.569000000    -0.616000000
O     5.394000000    -3.340000000    -1.752000000
C     5.530000000    -3.206000000     0.590000000
H     5.804000000    -4.252000000     0.702000000
C     5.478000000    -2.452000000     1.749000000
O     5.706000000    -3.073000000     2.956000000
C     4.993000000    -2.775000000     4.067000000
C     3.643000000    -3.131000000     4.132000000
H     3.190000000    -3.689000000     3.317000000
C     5.553000000    -2.284000000     5.179000000
H     6.625000000    -2.102000000     5.176000000
C     4.836000000    -2.029000000     6.411000000
H     5.266000000    -1.766000000     7.374000000
C     3.441000000    -2.237000000     6.370000000
H     2.830000000    -1.943000000     7.220000000
C     2.883000000    -2.838000000     5.286000000
O     1.592000000    -3.179000000     5.326000000
C     0.426000000    -2.420000000     5.176000000
C    -0.770000000    -3.025000000     5.312000000
H    -0.767000000    -4.022000000     5.744000000
C    -1.948000000    -2.172000000     5.283000000
O    -3.182000000    -2.870000000     5.433000000
C    -4.320000000    -2.555000000     4.844000000
C    -4.760000000    -2.966000000     3.591000000
H    -4.042000000    -3.473000000     2.952000000
C    -5.347000000    -2.093000000     5.657000000
H    -5.093000000    -1.876000000     6.691000000
C    -6.655000000    -1.806000000     5.189000000
H    -7.405000000    -1.348000000     5.829000000
C    -6.963000000    -2.033000000     3.851000000
H    -7.932000000    -1.722000000     3.469000000
C    -6.026000000    -2.623000000     3.035000000
O    -6.364000000    -2.838000000     1.706000000
C    -5.701000000    -2.131000000     0.648000000
C    -5.786000000    -2.751000000    -0.608000000
H    -6.242000000    -3.738000000    -0.640000000
C    -5.484000000    -2.125000000    -1.776000000
O    -5.593000000    -2.867000000    -2.894000000
C    -4.909000000    -2.597000000    -4.020000000
C    -3.600000000    -3.097000000    -4.124000000
H    -3.155000000    -3.561000000    -3.247000000
C    -5.440000000    -1.827000000    -5.023000000
H    -6.465000000    -1.476000000    -4.929000000
C    -4.605000000    -1.476000000    -6.110000000
H    -5.002000000    -0.837000000    -6.895000000
C    -3.334000000    -2.006000000    -6.229000000
H    -2.763000000    -1.820000000    -7.134000000
C    -2.878000000    -2.791000000    -5.221000000
O    -1.621000000    -3.230000000    -5.304000000
C    -0.481000000    -2.501000000    -5.252000000
C     0.691000000    -3.101000000    -5.699000000
H     0.569000000    -4.130000000    -6.027000000
C     1.854000000    -2.402000000    -5.494000000
O     3.066000000    -2.956000000    -5.964000000
C     4.212000000    -2.676000000    -5.156000000
C     5.337000000    -1.965000000    -5.645000000
H     5.347000000    -1.667000000    -6.690000000
C     6.510000000    -1.681000000    -4.849000000
H     7.345000000    -1.072000000    -5.185000000
C     6.479000000    -2.134000000    -3.520000000
H     7.323000000    -1.950000000    -2.861000000
C     5.344000000    -2.821000000    -2.985000000
C     4.209000000    -3.060000000    -3.787000000
H     3.463000000    -3.705000000    -3.330000000
O     0.663000000    -4.083000000     2.780000000
H     0.399000000    -3.863000000     3.673000000
H    -0.032000000    -4.657000000     2.459000000
O     3.078000000    -6.664000000    -3.143000000
H     2.741000000    -7.464000000    -3.544000000
H     2.301000000    -6.129000000    -2.984000000
O     1.875000000    -9.051000000    -3.900000000
H     1.150000000    -9.638000000    -3.682000000
H     2.488000000    -9.599000000    -4.390000000
O     1.373000000    -8.398000000     1.043000000
H     0.728000000    -8.211000000     0.361000000
H     1.707000000    -7.538000000     1.299000000
O    -1.664000000    -7.383000000     0.087000000
H    -0.953000000    -7.328000000    -0.551000000
H    -2.152000000    -6.567000000    -0.026000000
O    -1.222000000   -10.340000000    -1.297000000
H    -0.553000000   -10.889000000    -1.706000000
H    -0.785000000    -9.501000000    -1.150000000
O     2.596000000    -5.956000000     2.196000000
H     2.262000000    -5.856000000     1.304000000
H     2.104000000    -5.315000000     2.709000000
O    -1.735000000    -5.518000000    -2.535000000
H    -1.722000000    -5.718000000    -3.471000000
H    -0.825000000    -5.317000000    -2.320000000
O    -1.335000000    -5.901000000     2.584000000
H    -1.617000000    -6.226000000     3.439000000
H    -1.477000000    -6.637000000     1.989000000
O     4.375000000    -6.698000000     3.820000000
H     3.761000000    -6.379000000     3.158000000
H     4.254000000    -6.107000000     4.563000000
O     0.811000000    -7.171000000    -5.554000000
H     1.187000000    -7.787000000    -4.925000000
H     1.564000000    -6.693000000    -5.901000000
O     4.092000000    -6.917000000    -0.725000000
H     3.982000000    -6.725000000    -1.656000000
H     3.287000000    -6.598000000    -0.317000000
O     5.786000000    -7.557000000     1.788000000
H     5.395000000    -7.153000000     1.012000000
H     5.329000000    -7.152000000     2.525000000
O     4.078000000    -9.835000000    -0.261000000
H     3.880000000    -8.901000000    -0.190000000
H     5.014000000    -9.897000000    -0.070000000
O     5.008000000    -6.982000000    -4.951000000
H     4.531000000    -6.662000000    -4.186000000
H     5.644000000    -7.602000000    -4.595000000
O     0.423000000    -7.779000000    -1.773000000
H     0.857000000    -8.260000000    -2.478000000
H     0.808000000    -6.903000000    -1.808000000
O    -2.040000000    -2.670000000     0.581000000
H    -1.952000000    -2.426000000    -0.340000000
H    -1.205000000    -2.419000000     0.976000000
O    -2.080000000    -6.157000000    -5.237000000
H    -1.278000000    -6.638000000    -5.440000000
H    -2.035000000    -5.374000000    -5.787000000
O    -3.202000000    -5.130000000    -0.146000000
H    -2.962000000    -4.386000000     0.407000000
H    -2.669000000    -5.024000000    -0.934000000
