201
-1237.85043
C    -1.326000000    -1.047000000     4.768000000
H    -2.262000000    -0.601000000     4.441000000
C    -0.110000000    -0.364000000     4.730000000
C     1.072000000    -0.982000000     5.024000000
H     2.012000000    -0.499000000     4.769000000
C    -0.106000000     1.038000000     4.131000000
O    -1.185000000     1.922000000     4.624000000
H    -0.291000000     0.833000000     3.066000000
O     1.195000000     1.699000000     4.357000000
C     1.872000000     2.334000000     3.342000000
C     3.010000000     1.672000000     2.816000000
H     3.268000000     0.669000000     3.145000000
C     3.650000000     2.337000000     1.777000000
O     4.675000000     1.568000000     1.187000000
C     3.218000000     3.528000000     1.273000000
C     3.831000000     4.136000000    -0.001000000
H     3.607000000     5.183000000    -0.219000000
C     3.194000000     3.467000000    -1.246000000
C     2.160000000     4.024000000    -1.916000000
H     1.708000000     4.898000000    -1.452000000
H     4.911000000     3.976000000    -0.029000000
C     2.156000000     4.191000000     1.835000000
H     1.823000000     5.093000000     1.328000000
C     1.468000000     3.640000000     2.938000000
C     0.208000000     4.319000000     3.527000000
H     0.217000000     5.371000000     3.234000000
H     0.356000000     4.372000000     4.607000000
C    -1.078000000     3.709000000     2.976000000
C    -1.685000000     4.373000000     1.925000000
H    -1.105000000     5.099000000     1.362000000
C    -1.745000000     2.682000000     3.654000000
C    -2.914000000     2.115000000     3.117000000
H    -3.409000000     1.266000000     3.582000000
C    -3.403000000     2.689000000     1.983000000
O    -4.435000000     2.025000000     1.342000000
C    -4.123000000     1.196000000     0.205000000
C    -4.917000000    -0.119000000     0.152000000
C    -5.010000000    -0.904000000    -0.979000000
H    -4.553000000    -0.533000000    -1.893000000
C    -5.454000000    -0.665000000     1.348000000
H    -5.387000000    -0.137000000     2.296000000
O    -4.352000000     1.878000000    -1.009000000
H    -3.071000000     0.877000000     0.215000000
C    -2.853000000     3.880000000     1.421000000
C    -3.282000000     4.490000000     0.059000000
H    -3.028000000     5.551000000     0.003000000
H    -4.369000000     4.405000000     0.009000000
C    -2.709000000     3.748000000    -1.132000000
C    -1.541000000     4.232000000    -1.765000000
H    -1.071000000     5.166000000    -1.465000000
C    -3.255000000     2.559000000    -1.585000000
C    -2.638000000     1.959000000    -2.734000000
H    -2.999000000     1.041000000    -3.191000000
C    -1.582000000     2.543000000    -3.387000000
O    -1.084000000     1.785000000    -4.408000000
C     0.097000000     0.970000000    -4.318000000
C    -0.024000000    -0.414000000    -4.964000000
C    -1.177000000    -1.153000000    -4.777000000
H    -2.022000000    -0.699000000    -4.268000000
C     1.086000000    -1.022000000    -5.473000000
H     2.065000000    -0.553000000    -5.540000000
O     1.411000000     1.529000000    -4.464000000
H     0.117000000     0.687000000    -3.255000000
C    -0.971000000     3.657000000    -2.899000000
C     0.299000000     4.219000000    -3.509000000
H     0.276000000     5.277000000    -3.242000000
H     0.255000000     4.146000000    -4.598000000
C     1.560000000     3.518000000    -3.044000000
C     2.038000000     2.277000000    -3.494000000
C     3.178000000     1.677000000    -2.951000000
H     3.534000000     0.700000000    -3.267000000
C     3.776000000     2.264000000    -1.832000000
O     4.840000000     1.743000000    -1.183000000
C     4.470000000     0.915000000    -0.062000000
H     3.393000000     0.745000000    -0.204000000
C     5.067000000    -0.501000000    -0.132000000
C     5.411000000    -1.279000000     1.009000000
H     5.352000000    -0.795000000     1.980000000
C     5.029000000    -1.265000000    -1.302000000
H     5.058000000    -0.747000000    -2.257000000
C     5.290000000    -2.635000000    -1.334000000
O     5.373000000    -3.415000000    -2.519000000
C     5.540000000    -3.314000000    -0.188000000
H     5.664000000    -4.393000000    -0.234000000
C     5.567000000    -2.659000000     1.041000000
O     5.690000000    -3.371000000     2.237000000
C     5.176000000    -2.800000000     3.412000000
C     3.886000000    -3.034000000     3.853000000
H     3.245000000    -3.752000000     3.348000000
C     6.003000000    -1.919000000     4.145000000
H     6.918000000    -1.484000000     3.752000000
C     5.461000000    -1.452000000     5.353000000
H     6.021000000    -0.676000000     5.869000000
C     4.199000000    -1.830000000     5.931000000
H     3.914000000    -1.323000000     6.849000000
C     3.404000000    -2.642000000     5.171000000
O     2.153000000    -3.071000000     5.588000000
C     1.049000000    -2.317000000     5.404000000
C    -0.174000000    -2.940000000     5.535000000
H    -0.141000000    -3.971000000     5.879000000
C    -1.365000000    -2.353000000     5.161000000
O    -2.531000000    -3.122000000     5.282000000
C    -3.855000000    -2.670000000     5.170000000
C    -4.427000000    -2.673000000     3.860000000
H    -3.825000000    -2.881000000     2.979000000
C    -4.706000000    -2.605000000     6.283000000
H    -4.199000000    -2.714000000     7.239000000
C    -6.063000000    -2.279000000     6.124000000
H    -6.613000000    -2.136000000     7.051000000
C    -6.589000000    -2.252000000     4.842000000
H    -7.654000000    -2.080000000     4.705000000
C    -5.823000000    -2.414000000     3.710000000
O    -6.438000000    -2.512000000     2.558000000
C    -5.962000000    -1.989000000     1.358000000
C    -6.136000000    -2.730000000     0.208000000
H    -6.494000000    -3.756000000     0.205000000
C    -5.625000000    -2.197000000    -0.992000000
O    -5.734000000    -2.997000000    -2.086000000
C    -5.326000000    -2.572000000    -3.305000000
C    -4.090000000    -2.960000000    -3.762000000
H    -3.422000000    -3.478000000    -3.079000000
C    -6.119000000    -1.685000000    -4.039000000
H    -7.080000000    -1.373000000    -3.637000000
C    -5.683000000    -1.254000000    -5.243000000
H    -6.376000000    -0.602000000    -5.769000000
C    -4.441000000    -1.667000000    -5.718000000
H    -4.057000000    -1.375000000    -6.692000000
C    -3.639000000    -2.514000000    -4.962000000
O    -2.465000000    -3.094000000    -5.414000000
C    -1.239000000    -2.440000000    -5.351000000
C    -0.099000000    -3.017000000    -5.907000000
H    -0.161000000    -4.019000000    -6.324000000
C     1.132000000    -2.403000000    -5.854000000
O     2.376000000    -2.946000000    -6.291000000
C     3.536000000    -2.690000000    -5.612000000
C     4.495000000    -2.003000000    -6.371000000
H     4.261000000    -1.707000000    -7.391000000
C     5.715000000    -1.698000000    -5.757000000
H     6.475000000    -1.162000000    -6.320000000
C     5.937000000    -2.162000000    -4.446000000
H     6.855000000    -1.955000000    -3.903000000
C     5.031000000    -2.856000000    -3.712000000
C     3.768000000    -3.072000000    -4.293000000
H     3.000000000    -3.578000000    -3.713000000
O    -5.055000000    -6.353000000    -0.703000000
H    -4.245000000    -6.072000000    -0.277000000
H    -4.845000000    -6.364000000    -1.636000000
O     1.390000000    -7.425000000    -2.645000000
H     1.046000000    -6.547000000    -2.480000000
H     0.852000000    -7.999000000    -2.101000000
O     0.644000000   -10.023000000    -1.127000000
H     0.009000000    -9.968000000    -0.412000000
H     0.259000000   -10.649000000    -1.741000000
O    -1.418000000    -8.160000000     2.084000000
H    -1.129000000    -7.542000000     1.413000000
H    -1.652000000    -7.610000000     2.832000000
O     3.264000000   -10.003000000    -2.124000000
H     2.374000000    -9.729000000    -1.901000000
H     3.705000000   -10.093000000    -1.279000000
O     2.866000000    -5.423000000     1.736000000
H     2.313000000    -5.289000000     0.966000000
H     2.737000000    -6.343000000     1.966000000
O    -0.858000000    -8.592000000    -5.221000000
H    -0.937000000    -7.832000000    -4.644000000
H    -0.807000000    -8.221000000    -6.101000000
O     6.370000000    -6.450000000    -2.441000000
H     5.982000000    -5.792000000    -1.864000000
H     6.668000000    -5.955000000    -3.204000000
O    -1.087000000    -5.814000000    -4.210000000
H    -1.440000000    -4.977000000    -4.512000000
H    -0.523000000    -5.583000000    -3.471000000
O    -0.628000000    -4.815000000     2.446000000
H    -0.417000000    -5.346000000     1.678000000
H    -0.073000000    -5.167000000     3.141000000
O     2.489000000    -8.647000000    -5.068000000
H     1.676000000    -9.145000000    -4.980000000
H     2.564000000    -8.163000000    -4.245000000
O     6.068000000    -7.423000000     0.410000000
H     5.157000000    -7.158000000     0.278000000
H     6.361000000    -7.713000000    -0.454000000
O     3.642000000    -6.896000000    -0.929000000
H     3.059000000    -7.424000000    -1.474000000
H     3.156000000    -6.086000000    -0.773000000
O     2.023000000    -8.316000000     1.163000000
H     1.700000000    -7.769000000     0.447000000
H     2.508000000    -9.017000000     0.728000000
O    -0.252000000    -6.761000000     0.147000000
H     0.510000000    -6.288000000    -0.187000000
H    -0.975000000    -6.474000000    -0.410000000
O    -2.101000000    -2.523000000     1.065000000
H    -1.399000000    -2.677000000     1.697000000
H    -1.655000000    -2.170000000     0.294000000
O    -3.229000000    -5.450000000     3.234000000
H    -3.085000000    -5.744000000     4.133000000
H    -2.535000000    -4.811000000     3.076000000
O    -2.925000000    -5.045000000     0.580000000
H    -3.159000000    -5.246000000     1.486000000
H    -2.710000000    -4.112000000     0.591000000
O    -4.570000000    -6.586000000    -3.568000000
H    -3.701000000    -6.415000000    -3.933000000
H    -5.123000000    -6.748000000    -4.333000000
