201
-1240.01629
C    -0.415000000    -1.756000000     4.268000000
H    -1.379000000    -1.442000000     3.875000000
C     0.534000000    -0.821000000     4.522000000
C     1.889000000    -1.198000000     4.806000000
H     2.738000000    -0.530000000     4.932000000
C     0.215000000     0.663000000     4.244000000
O    -1.069000000     1.119000000     4.843000000
H     0.131000000     0.706000000     3.148000000
O     1.246000000     1.639000000     4.622000000
C     1.590000000     2.528000000     3.624000000
C     2.635000000     2.216000000     2.801000000
H     3.253000000     1.336000000     2.960000000
C     2.914000000     3.050000000     1.711000000
O     4.008000000     2.623000000     0.987000000
C     2.094000000     4.140000000     1.405000000
C     2.387000000     5.029000000     0.156000000
H     1.798000000     5.941000000     0.281000000
C     1.913000000     4.362000000    -1.115000000
C     0.615000000     4.755000000    -1.575000000
H    -0.094000000     5.292000000    -0.951000000
H     3.433000000     5.288000000    -0.017000000
C     1.031000000     4.433000000     2.190000000
H     0.400000000     5.283000000     1.945000000
C     0.783000000     3.595000000     3.313000000
C    -0.471000000     3.935000000     4.116000000
H    -0.592000000     4.995000000     3.883000000
H    -0.306000000     3.821000000     5.190000000
C    -1.584000000     3.071000000     3.529000000
C    -2.367000000     3.636000000     2.507000000
H    -2.265000000     4.638000000     2.096000000
C    -1.909000000     1.773000000     4.014000000
C    -3.055000000     1.149000000     3.593000000
H    -3.111000000     0.116000000     3.925000000
C    -3.775000000     1.691000000     2.497000000
O    -4.685000000     0.864000000     1.894000000
C    -4.441000000     0.161000000     0.636000000
C    -5.006000000    -1.240000000     0.674000000
C    -5.009000000    -1.924000000    -0.535000000
H    -4.817000000    -1.411000000    -1.474000000
C    -5.202000000    -2.007000000     1.876000000
H    -5.012000000    -1.540000000     2.839000000
O    -4.980000000     0.838000000    -0.549000000
H    -3.353000000     0.168000000     0.471000000
C    -3.472000000     2.927000000     1.959000000
C    -4.271000000     3.444000000     0.813000000
H    -4.357000000     4.531000000     0.868000000
H    -5.273000000     3.056000000     1.007000000
C    -3.743000000     2.964000000    -0.536000000
C    -2.858000000     3.815000000    -1.212000000
H    -2.655000000     4.777000000    -0.747000000
C    -4.080000000     1.737000000    -1.139000000
C    -3.510000000     1.271000000    -2.327000000
H    -3.746000000     0.288000000    -2.727000000
C    -2.524000000     2.133000000    -2.917000000
O    -1.792000000     1.689000000    -4.016000000
C    -0.407000000     1.326000000    -3.862000000
C    -0.261000000    -0.048000000    -4.565000000
C    -1.124000000    -1.065000000    -4.295000000
H    -1.931000000    -0.989000000    -3.570000000
C     0.922000000    -0.212000000    -5.344000000
H     1.635000000     0.583000000    -5.546000000
O     0.301000000     2.415000000    -4.425000000
H    -0.148000000     1.089000000    -2.819000000
C    -2.324000000     3.450000000    -2.468000000
C    -1.356000000     4.399000000    -3.114000000
H    -1.652000000     5.406000000    -2.813000000
H    -1.463000000     4.371000000    -4.201000000
C     0.150000000     4.151000000    -2.788000000
C     0.903000000     3.163000000    -3.484000000
C     2.223000000     2.910000000    -3.006000000
H     2.839000000     2.239000000    -3.598000000
C     2.638000000     3.423000000    -1.804000000
O     3.767000000     2.930000000    -1.304000000
C     3.680000000     1.989000000    -0.251000000
H     2.626000000     1.674000000    -0.265000000
C     4.608000000     0.824000000    -0.567000000
C     4.861000000    -0.168000000     0.352000000
H     4.577000000    -0.082000000     1.398000000
C     4.965000000     0.519000000    -1.890000000
H     4.719000000     1.167000000    -2.728000000
C     5.571000000    -0.650000000    -2.279000000
O     6.084000000    -0.904000000    -3.560000000
C     5.761000000    -1.588000000    -1.333000000
H     6.127000000    -2.570000000    -1.620000000
C     5.576000000    -1.319000000     0.015000000
O     5.913000000    -2.283000000     0.936000000
C     5.847000000    -2.120000000     2.263000000
C     4.731000000    -2.607000000     2.987000000
H     3.998000000    -3.217000000     2.465000000
C     6.852000000    -1.373000000     2.908000000
H     7.696000000    -1.034000000     2.312000000
C     6.832000000    -1.241000000     4.324000000
H     7.675000000    -0.856000000     4.892000000
C     5.692000000    -1.715000000     5.023000000
H     5.767000000    -1.591000000     6.101000000
C     4.600000000    -2.326000000     4.386000000
O     3.522000000    -2.915000000     5.122000000
C     2.188000000    -2.586000000     4.976000000
C     1.212000000    -3.573000000     4.831000000
H     1.427000000    -4.638000000     4.843000000
C    -0.126000000    -3.089000000     4.557000000
O    -1.010000000    -4.058000000     4.342000000
C    -2.343000000    -3.952000000     4.737000000
C    -3.354000000    -4.194000000     3.782000000
H    -3.057000000    -4.462000000     2.771000000
C    -2.738000000    -3.825000000     6.026000000
H    -1.902000000    -3.878000000     6.719000000
C    -4.070000000    -3.651000000     6.399000000
H    -4.393000000    -3.528000000     7.430000000
C    -5.044000000    -3.716000000     5.374000000
H    -6.075000000    -3.437000000     5.578000000
C    -4.671000000    -3.952000000     4.069000000
O    -5.653000000    -4.037000000     3.053000000
C    -5.493000000    -3.334000000     1.893000000
C    -5.585000000    -3.970000000     0.717000000
H    -5.858000000    -5.019000000     0.630000000
C    -5.402000000    -3.320000000    -0.503000000
O    -5.401000000    -4.138000000    -1.636000000
C    -4.925000000    -3.790000000    -2.882000000
C    -3.569000000    -3.980000000    -3.122000000
H    -2.931000000    -4.279000000    -2.294000000
C    -5.790000000    -3.348000000    -3.852000000
H    -6.861000000    -3.407000000    -3.678000000
C    -5.201000000    -2.718000000    -4.966000000
H    -5.831000000    -2.133000000    -5.631000000
C    -3.804000000    -2.697000000    -5.151000000
H    -3.412000000    -2.202000000    -6.035000000
C    -2.966000000    -3.407000000    -4.266000000
O    -1.653000000    -3.405000000    -4.467000000
C    -0.750000000    -2.329000000    -4.807000000
C     0.388000000    -2.515000000    -5.566000000
H     0.634000000    -3.505000000    -5.942000000
C     1.277000000    -1.462000000    -5.783000000
O     2.428000000    -1.629000000    -6.535000000
C     3.612000000    -0.947000000    -6.194000000
C     4.214000000    -0.107000000    -7.143000000
H     3.731000000    -0.051000000    -8.115000000
C     5.366000000     0.625000000    -6.862000000
H     5.755000000     1.287000000    -7.631000000
C     5.988000000     0.343000000    -5.603000000
H     6.972000000     0.721000000    -5.340000000
C     5.433000000    -0.638000000    -4.739000000
C     4.140000000    -1.149000000    -4.943000000
H     3.701000000    -1.750000000    -4.151000000
O     1.774000000    -7.846000000     4.834000000
H     2.514000000    -8.418000000     4.630000000
H     1.753000000    -7.814000000     5.791000000
O    -3.291000000    -7.290000000    -2.832000000
H    -3.063000000    -8.160000000    -2.505000000
H    -4.244000000    -7.307000000    -2.916000000
O     6.711000000    -5.906000000     1.019000000
H     5.921000000    -5.453000000     0.723000000
H     7.275000000    -5.209000000     1.354000000
O     4.340000000    -8.390000000     1.522000000
H     3.725000000    -8.107000000     0.846000000
H     4.175000000    -7.800000000     2.258000000
O    -2.676000000    -6.501000000    -0.226000000
H    -1.893000000    -5.996000000    -0.005000000
H    -2.772000000    -6.392000000    -1.172000000
O     2.408000000    -7.185000000    -0.068000000
H     3.153000000    -6.608000000    -0.238000000
H     1.684000000    -6.590000000     0.126000000
O     4.659000000    -5.387000000     4.787000000
H     3.926000000    -5.815000000     4.345000000
H     4.590000000    -4.467000000     4.531000000
O     2.292000000    -1.885000000    -2.002000000
H     2.514000000    -1.656000000    -1.099000000
H     1.344000000    -2.013000000    -1.990000000
O    -0.241000000    -7.128000000    -5.654000000
H    -0.819000000    -6.390000000    -5.847000000
H    -0.509000000    -7.420000000    -4.782000000
O    -0.574000000    -6.293000000    -2.668000000
H    -1.497000000    -6.503000000    -2.804000000
H    -0.570000000    -5.708000000    -1.910000000
O    -2.362000000    -9.533000000    -1.329000000
H    -3.150000000    -9.627000000    -0.795000000
H    -1.671000000    -9.319000000    -0.702000000
O     3.756000000    -3.871000000    -2.910000000
H     3.107000000    -4.353000000    -3.422000000
H     3.304000000    -3.071000000    -2.643000000
O    -0.611000000    -7.415000000     1.874000000
H    -0.172000000    -6.787000000     1.301000000
H    -1.458000000    -7.012000000     2.067000000
O     3.970000000    -4.987000000    -0.387000000
H     3.234000000    -4.641000000     0.117000000
H     3.912000000    -4.542000000    -1.232000000
O    -0.538000000    -9.856000000     1.059000000
H     0.159000000   -10.133000000     1.654000000
H    -0.547000000    -8.901000000     1.129000000
O    -4.820000000    -7.070000000     1.550000000
H    -4.780000000    -7.981000000     1.259000000
H    -4.051000000    -6.658000000     1.156000000
O     1.133000000    -8.388000000    -2.208000000
H     0.632000000    -7.614000000    -2.466000000
H     1.487000000    -8.168000000    -1.346000000
O     2.594000000    -6.012000000     2.987000000
H     2.210000000    -5.634000000     2.196000000
H     1.903000000    -6.565000000     3.349000000
O     1.881000000    -5.548000000    -4.328000000
H     1.645000000    -5.798000000    -5.221000000
H     1.095000000    -5.729000000    -3.813000000
