201
-1227.73189
C    -1.834000000    -1.893000000     4.822000000
H    -2.836000000    -1.539000000     4.595000000
C    -0.788000000    -0.970000000     4.793000000
C     0.501000000    -1.362000000     5.198000000
H     1.252000000    -0.577000000     5.233000000
C    -1.130000000     0.479000000     4.244000000
O    -2.581000000     0.756000000     4.299000000
H    -0.828000000     0.503000000     3.187000000
O    -0.441000000     1.519000000     4.907000000
C     0.185000000     2.470000000     4.121000000
C     1.497000000     2.311000000     3.881000000
H     1.992000000     1.445000000     4.313000000
C     2.102000000     3.075000000     2.856000000
O     3.401000000     2.641000000     2.477000000
C     1.409000000     4.110000000     2.232000000
C     2.040000000     5.013000000     1.154000000
H     1.608000000     6.012000000     1.241000000
C     1.859000000     4.397000000    -0.243000000
C     0.841000000     4.762000000    -1.075000000
H     0.138000000     5.513000000    -0.725000000
H     3.108000000     5.141000000     1.344000000
C     0.103000000     4.387000000     2.665000000
H    -0.442000000     5.172000000     2.145000000
C    -0.559000000     3.468000000     3.530000000
C    -2.006000000     3.597000000     3.818000000
H    -2.239000000     4.637000000     3.582000000
H    -2.188000000     3.435000000     4.882000000
C    -2.928000000     2.744000000     2.957000000
C    -3.381000000     3.280000000     1.749000000
H    -3.045000000     4.299000000     1.571000000
C    -3.215000000     1.428000000     3.272000000
C    -4.072000000     0.665000000     2.479000000
H    -4.323000000    -0.370000000     2.696000000
C    -4.386000000     1.158000000     1.186000000
O    -4.959000000     0.219000000     0.318000000
C    -4.250000000    -0.105000000    -0.841000000
C    -4.363000000    -1.559000000    -1.217000000
C    -4.619000000    -2.082000000    -2.484000000
H    -4.870000000    -1.369000000    -3.266000000
C    -4.084000000    -2.524000000    -0.194000000
H    -3.743000000    -2.141000000     0.764000000
O    -4.681000000     0.753000000    -1.924000000
H    -3.157000000    -0.077000000    -0.716000000
C    -4.123000000     2.503000000     0.857000000
C    -4.642000000     3.144000000    -0.448000000
H    -4.567000000     4.216000000    -0.254000000
H    -5.681000000     2.909000000    -0.689000000
C    -3.700000000     2.889000000    -1.684000000
C    -2.707000000     3.728000000    -1.977000000
H    -2.574000000     4.619000000    -1.369000000
C    -3.802000000     1.712000000    -2.428000000
C    -2.834000000     1.353000000    -3.374000000
H    -2.899000000     0.415000000    -3.920000000
C    -1.793000000     2.216000000    -3.607000000
O    -0.798000000     1.792000000    -4.485000000
C     0.495000000     1.424000000    -4.041000000
C     1.027000000     0.231000000    -4.780000000
C     0.165000000    -0.856000000    -5.041000000
H    -0.884000000    -0.838000000    -4.756000000
C     2.380000000     0.142000000    -4.996000000
H     3.077000000     0.947000000    -4.774000000
O     1.395000000     2.625000000    -4.067000000
H     0.415000000     1.185000000    -2.970000000
C    -1.744000000     3.455000000    -2.896000000
C    -0.660000000     4.529000000    -3.149000000
H    -0.916000000     5.550000000    -2.859000000
H    -0.385000000     4.541000000    -4.206000000
C     0.629000000     4.221000000    -2.336000000
C     1.611000000     3.314000000    -2.857000000
C     2.602000000     2.899000000    -1.968000000
H     3.321000000     2.157000000    -2.306000000
C     2.761000000     3.426000000    -0.731000000
O     3.747000000     2.982000000     0.102000000
C     3.618000000     2.007000000     1.114000000
H     2.694000000     1.434000000     0.947000000
C     4.681000000     0.929000000     1.124000000
C     5.026000000     0.439000000     2.327000000
H     4.832000000     0.899000000     3.293000000
C     5.059000000     0.345000000    -0.060000000
H     4.727000000     0.781000000    -0.999000000
C     5.787000000    -0.847000000    -0.053000000
O     6.025000000    -1.656000000    -1.181000000
C     6.056000000    -1.422000000     1.204000000
H     6.649000000    -2.329000000     1.283000000
C     5.697000000    -0.772000000     2.375000000
O     6.062000000    -1.314000000     3.627000000
C     5.289000000    -1.355000000     4.748000000
C     4.205000000    -2.369000000     4.784000000
H     4.150000000    -3.134000000     4.014000000
C     5.356000000    -0.370000000     5.647000000
H     6.204000000     0.309000000     5.606000000
C     4.391000000    -0.204000000     6.580000000
H     4.341000000     0.668000000     7.226000000
C     3.373000000    -1.203000000     6.698000000
H     2.528000000    -1.034000000     7.361000000
C     3.258000000    -2.249000000     5.853000000
O     2.108000000    -3.062000000     5.820000000
C     0.798000000    -2.672000000     5.502000000
C    -0.243000000    -3.659000000     5.395000000
H     0.043000000    -4.708000000     5.414000000
C    -1.532000000    -3.219000000     5.084000000
O    -2.536000000    -4.151000000     5.007000000
C    -3.536000000    -4.147000000     4.048000000
C    -3.273000000    -4.423000000     2.670000000
H    -2.258000000    -4.675000000     2.375000000
C    -4.826000000    -3.798000000     4.446000000
H    -4.990000000    -3.514000000     5.482000000
C    -5.898000000    -3.835000000     3.499000000
H    -6.912000000    -3.637000000     3.836000000
C    -5.585000000    -4.263000000     2.237000000
H    -6.391000000    -4.329000000     1.511000000
C    -4.307000000    -4.495000000     1.778000000
O    -3.977000000    -4.779000000     0.496000000
C    -4.085000000    -3.906000000    -0.479000000
C    -4.270000000    -4.372000000    -1.778000000
H    -4.301000000    -5.445000000    -1.950000000
C    -4.420000000    -3.432000000    -2.824000000
O    -4.665000000    -3.794000000    -4.125000000
C    -3.808000000    -3.404000000    -5.096000000
C    -2.424000000    -3.639000000    -4.898000000
H    -2.081000000    -4.115000000    -3.983000000
C    -4.283000000    -2.880000000    -6.350000000
H    -5.345000000    -2.684000000    -6.471000000
C    -3.378000000    -2.512000000    -7.310000000
H    -3.732000000    -1.960000000    -8.177000000
C    -2.032000000    -2.599000000    -7.032000000
H    -1.394000000    -2.027000000    -7.702000000
C    -1.541000000    -3.087000000    -5.854000000
O    -0.140000000    -3.211000000    -5.740000000
C     0.669000000    -2.104000000    -5.519000000
C     2.069000000    -2.098000000    -5.781000000
H     2.600000000    -2.908000000    -6.274000000
C     2.948000000    -1.087000000    -5.426000000
O     4.337000000    -1.202000000    -5.680000000
C     5.238000000    -0.963000000    -4.686000000
C     6.280000000    -0.049000000    -5.011000000
H     6.295000000     0.309000000    -6.037000000
C     7.208000000     0.309000000    -3.987000000
H     8.003000000     0.979000000    -4.303000000
C     7.067000000    -0.109000000    -2.671000000
H     7.701000000     0.379000000    -1.936000000
C     6.123000000    -1.092000000    -2.389000000
C     5.219000000    -1.515000000    -3.385000000
H     4.397000000    -2.172000000    -3.111000000
O    -1.515000000   -10.831000000    -2.018000000
H    -1.344000000   -11.504000000    -1.360000000
H    -1.774000000   -10.061000000    -1.511000000
O     0.769000000    -7.056000000    -6.515000000
H     1.321000000    -7.781000000    -6.224000000
H     0.474000000    -6.640000000    -5.705000000
O     0.771000000    -7.472000000    -1.352000000
H     0.775000000    -7.980000000    -0.541000000
H     0.139000000    -6.771000000    -1.192000000
O    -2.170000000    -7.638000000     0.110000000
H    -1.685000000    -6.861000000     0.390000000
H    -2.352000000    -7.485000000    -0.817000000
O     0.173000000    -8.980000000    -3.578000000
H    -0.547000000    -9.606000000    -3.502000000
H     0.112000000    -8.448000000    -2.784000000
O     0.378000000    -5.832000000    -4.133000000
H     1.318000000    -5.659000000    -4.074000000
H     0.029000000    -5.546000000    -3.289000000
O     3.199000000    -5.578000000    -4.405000000
H     3.019000000    -6.286000000    -5.024000000
H     3.898000000    -5.070000000    -4.818000000
O     2.232000000    -1.944000000    -2.068000000
H     1.718000000    -1.810000000    -2.864000000
H     2.339000000    -2.894000000    -2.010000000
O    -3.746000000   -10.025000000     0.441000000
H    -3.394000000   -10.393000000     1.252000000
H    -3.389000000    -9.138000000     0.407000000
O    -4.727000000    -7.138000000    -4.613000000
H    -3.886000000    -6.929000000    -4.205000000
H    -5.381000000    -6.810000000    -3.996000000
O    -1.766000000    -8.145000000     3.545000000
H    -1.210000000    -7.452000000     3.190000000
H    -1.295000000    -8.954000000     3.349000000
O    -0.062000000    -6.123000000     2.465000000
H     0.890000000    -6.107000000     2.570000000
H    -0.205000000    -5.907000000     1.544000000
O     4.548000000    -7.063000000     0.474000000
H     4.302000000    -6.138000000     0.477000000
H     4.141000000    -7.417000000    -0.317000000
O     1.367000000    -8.591000000     1.122000000
H     0.691000000    -9.142000000     1.517000000
H     2.191000000    -8.956000000     1.442000000
O     3.725000000    -4.454000000     0.270000000
H     3.834000000    -3.522000000     0.455000000
H     3.196000000    -4.480000000    -0.528000000
O    -6.507000000    -5.844000000    -3.254000000
H    -6.883000000    -5.341000000    -2.531000000
H    -6.031000000    -5.197000000    -3.774000000
O    -2.222000000    -6.997000000    -3.115000000
H    -1.584000000    -6.823000000    -3.808000000
H    -2.112000000    -6.271000000    -2.501000000
O     3.343000000    -8.196000000    -1.763000000
H     2.401000000    -8.075000000    -1.649000000
H     3.503000000    -9.100000000    -1.491000000
O     2.304000000    -4.631000000    -2.065000000
H     2.869000000    -5.200000000    -2.587000000
H     1.502000000    -5.138000000    -1.941000000
