201
-1252.66658
C    -2.549000000    -2.020000000     4.216000000
H    -3.544000000    -1.628000000     4.022000000
C    -1.433000000    -1.216000000     4.276000000
C    -0.172000000    -1.717000000     4.622000000
H     0.684000000    -1.050000000     4.679000000
C    -1.491000000     0.273000000     3.901000000
O    -2.781000000     0.796000000     4.127000000
H    -1.298000000     0.368000000     2.823000000
O    -0.426000000     1.030000000     4.627000000
C     0.306000000     2.041000000     4.046000000
C     1.653000000     1.903000000     3.674000000
H     2.160000000     0.981000000     3.947000000
C     2.340000000     2.865000000     2.922000000
O     3.629000000     2.721000000     2.568000000
C     1.663000000     3.911000000     2.402000000
C     2.270000000     4.945000000     1.488000000
H     1.803000000     5.912000000     1.689000000
C     2.248000000     4.441000000    -0.002000000
C     1.219000000     4.884000000    -0.765000000
H     0.408000000     5.511000000    -0.404000000
H     3.303000000     5.201000000     1.732000000
C     0.326000000     4.099000000     2.736000000
H    -0.149000000     5.025000000     2.422000000
C    -0.386000000     3.158000000     3.514000000
C    -1.799000000     3.441000000     3.856000000
H    -2.060000000     4.498000000     3.945000000
H    -1.938000000     3.066000000     4.871000000
C    -2.812000000     2.841000000     2.951000000
C    -3.059000000     3.510000000     1.726000000
H    -2.727000000     4.542000000     1.642000000
C    -3.286000000     1.526000000     3.114000000
C    -3.878000000     0.786000000     2.114000000
H    -4.129000000    -0.265000000     2.234000000
C    -4.224000000     1.505000000     0.951000000
O    -4.893000000     0.815000000     0.003000000
C    -3.940000000     0.256000000    -0.958000000
C    -4.191000000    -1.233000000    -1.238000000
C    -3.595000000    -1.883000000    -2.305000000
H    -2.979000000    -1.263000000    -2.952000000
C    -4.983000000    -2.007000000    -0.336000000
H    -5.507000000    -1.577000000     0.514000000
O    -4.052000000     1.050000000    -2.180000000
H    -2.927000000     0.342000000    -0.539000000
C    -3.885000000     2.857000000     0.744000000
C    -4.368000000     3.588000000    -0.558000000
H    -4.435000000     4.655000000    -0.336000000
H    -5.290000000     3.181000000    -0.978000000
C    -3.318000000     3.269000000    -1.669000000
C    -2.372000000     4.270000000    -1.995000000
H    -2.392000000     5.234000000    -1.493000000
C    -3.263000000     2.116000000    -2.467000000
C    -2.228000000     1.887000000    -3.386000000
H    -2.211000000     1.010000000    -4.028000000
C    -1.182000000     2.760000000    -3.546000000
O    -0.135000000     2.408000000    -4.439000000
C     1.148000000     1.997000000    -4.009000000
C     1.674000000     0.885000000    -4.925000000
C     0.725000000     0.032000000    -5.430000000
H    -0.339000000     0.224000000    -5.315000000
C     3.005000000     0.669000000    -5.087000000
H     3.789000000     1.248000000    -4.607000000
O     2.126000000     3.076000000    -3.843000000
H     0.887000000     1.517000000    -3.054000000
C    -1.220000000     3.972000000    -2.800000000
C    -0.041000000     4.925000000    -2.857000000
H    -0.390000000     5.927000000    -2.599000000
H     0.247000000     4.997000000    -3.908000000
C     1.120000000     4.460000000    -2.060000000
C     2.139000000     3.649000000    -2.602000000
C     3.158000000     3.177000000    -1.826000000
H     3.886000000     2.463000000    -2.203000000
C     3.269000000     3.633000000    -0.508000000
O     4.182000000     2.867000000     0.251000000
C     3.753000000     1.986000000     1.275000000
H     2.794000000     1.547000000     0.962000000
C     4.580000000     0.677000000     1.296000000
C     4.812000000    -0.037000000     2.476000000
H     4.628000000     0.455000000     3.428000000
C     4.849000000    -0.021000000     0.136000000
H     4.615000000     0.399000000    -0.838000000
C     5.522000000    -1.299000000     0.164000000
O     5.692000000    -1.942000000    -1.073000000
C     5.573000000    -2.013000000     1.281000000
H     5.768000000    -3.081000000     1.228000000
C     5.225000000    -1.433000000     2.506000000
O     5.469000000    -2.180000000     3.640000000
C     4.507000000    -2.452000000     4.651000000
C     3.281000000    -2.953000000     4.330000000
H     3.040000000    -3.247000000     3.312000000
C     4.842000000    -2.086000000     5.936000000
H     5.866000000    -1.741000000     6.052000000
C     3.977000000    -2.166000000     7.024000000
H     4.255000000    -1.971000000     8.057000000
C     2.746000000    -2.849000000     6.683000000
H     2.047000000    -3.118000000     7.470000000
C     2.342000000    -3.149000000     5.364000000
O     1.176000000    -3.803000000     5.087000000
C    -0.025000000    -3.118000000     4.803000000
C    -1.144000000    -3.945000000     4.774000000
H    -0.910000000    -5.003000000     4.858000000
C    -2.450000000    -3.386000000     4.629000000
O    -3.567000000    -4.236000000     4.678000000
C    -4.646000000    -4.084000000     3.833000000
C    -4.541000000    -4.153000000     2.427000000
H    -3.617000000    -4.501000000     1.973000000
C    -5.852000000    -3.798000000     4.491000000
H    -5.881000000    -3.537000000     5.545000000
C    -7.038000000    -3.812000000     3.763000000
H    -8.064000000    -3.772000000     4.120000000
C    -6.960000000    -3.909000000     2.353000000
H    -7.839000000    -3.902000000     1.714000000
C    -5.743000000    -4.043000000     1.656000000
O    -5.735000000    -4.255000000     0.308000000
C    -5.068000000    -3.390000000    -0.533000000
C    -4.347000000    -4.022000000    -1.556000000
H    -4.509000000    -5.071000000    -1.790000000
C    -3.593000000    -3.255000000    -2.449000000
O    -2.745000000    -3.807000000    -3.392000000
C    -2.494000000    -3.250000000    -4.612000000
C    -1.205000000    -2.893000000    -4.987000000
H    -0.350000000    -3.153000000    -4.369000000
C    -3.592000000    -2.970000000    -5.445000000
H    -4.573000000    -3.408000000    -5.285000000
C    -3.396000000    -2.359000000    -6.675000000
H    -4.243000000    -2.154000000    -7.325000000
C    -2.091000000    -2.158000000    -7.097000000
H    -1.857000000    -1.702000000    -8.056000000
C    -0.993000000    -2.281000000    -6.238000000
O     0.309000000    -2.016000000    -6.775000000
C     1.180000000    -1.120000000    -6.157000000
C     2.481000000    -1.419000000    -6.286000000
H     2.708000000    -2.292000000    -6.892000000
C     3.388000000    -0.516000000    -5.660000000
O     4.733000000    -0.871000000    -5.706000000
C     5.604000000    -0.835000000    -4.569000000
C     6.667000000     0.082000000    -4.531000000
H     6.864000000     0.639000000    -5.444000000
C     7.540000000     0.091000000    -3.463000000
H     8.453000000     0.681000000    -3.448000000
C     7.219000000    -0.644000000    -2.308000000
H     7.919000000    -0.622000000    -1.477000000
C     6.045000000    -1.346000000    -2.279000000
C     5.198000000    -1.422000000    -3.327000000
H     4.272000000    -1.991000000    -3.333000000
O    -0.466000000    -7.342000000     5.403000000
H    -0.505000000    -8.283000000     5.232000000
H     0.190000000    -7.014000000     4.789000000
O    -0.685000000    -5.593000000    -3.011000000
H    -0.312000000    -5.710000000    -2.138000000
H    -1.538000000    -5.187000000    -2.854000000
O     1.374000000    -7.397000000    -4.033000000
H     0.663000000    -7.037000000    -4.564000000
H     0.940000000    -7.999000000    -3.429000000
O     0.834000000    -7.732000000     0.071000000
H     0.602000000    -6.835000000    -0.173000000
H     1.734000000    -7.668000000     0.391000000
O    -3.690000000    -8.195000000     1.004000000
H    -3.042000000    -7.511000000     1.178000000
H    -3.203000000    -8.874000000     0.538000000
O    -1.501000000    -6.496000000    -5.584000000
H    -2.450000000    -6.413000000    -5.680000000
H    -1.335000000    -6.296000000    -4.663000000
O     4.217000000    -7.864000000    -0.665000000
H     4.577000000    -8.544000000    -0.096000000
H     4.023000000    -7.135000000    -0.076000000
O     2.656000000   -10.099000000     0.707000000
H     1.727000000   -10.109000000     0.936000000
H     2.683000000   -10.418000000    -0.195000000
O     3.797000000    -6.297000000     4.645000000
H     4.192000000    -7.051000000     4.209000000
H     3.393000000    -6.660000000     5.434000000
O     3.855000000    -6.632000000    -3.170000000
H     3.971000000    -6.910000000    -2.261000000
H     2.961000000    -6.896000000    -3.388000000
O    -0.085000000    -9.817000000     1.586000000
H     0.022000000    -9.069000000     0.998000000
H    -0.868000000   -10.263000000     1.266000000
O    -0.135000000    -8.877000000    -2.350000000
H    -0.826000000    -9.491000000    -2.102000000
H     0.410000000    -8.801000000    -1.567000000
O     1.834000000    -1.546000000    -2.943000000
H     2.025000000    -2.236000000    -3.578000000
H     1.147000000    -1.915000000    -2.388000000
O    -1.478000000    -6.463000000     1.205000000
H    -0.784000000    -6.554000000     1.859000000
H    -1.187000000    -5.743000000     0.646000000
O     1.235000000    -6.566000000     3.446000000
H     0.946000000    -6.002000000     2.729000000
H     2.054000000    -6.172000000     3.746000000
O     3.547000000    -5.469000000     0.736000000
H     2.748000000    -5.342000000     1.248000000
H     3.520000000    -4.777000000     0.075000000
O     6.159000000    -6.597000000     1.193000000
H     5.392000000    -6.035000000     1.086000000
H     6.703000000    -6.408000000     0.428000000
O     2.010000000    -4.404000000    -3.635000000
H     2.213000000    -5.124000000    -4.232000000
H     1.060000000    -4.444000000    -3.525000000
O     3.293000000    -3.763000000    -1.285000000
H     3.378000000    -2.854000000    -1.572000000
H     3.046000000    -4.243000000    -2.076000000
