201
-1221.66601
C    -1.498000000    -2.390000000     3.981000000
H    -2.337000000    -2.445000000     3.293000000
C    -0.979000000    -1.132000000     4.412000000
C     0.089000000    -1.082000000     5.341000000
H     0.474000000    -0.118000000     5.664000000
C    -1.647000000     0.072000000     3.789000000
O    -3.128000000    -0.061000000     3.670000000
H    -1.165000000     0.125000000     2.801000000
O    -1.354000000     1.311000000     4.590000000
C    -0.845000000     2.344000000     3.866000000
C     0.502000000     2.530000000     3.800000000
H     1.137000000     1.764000000     4.239000000
C     1.061000000     3.552000000     3.058000000
O     2.405000000     3.431000000     2.810000000
C     0.167000000     4.398000000     2.318000000
C     0.624000000     5.438000000     1.286000000
H    -0.069000000     6.270000000     1.146000000
C     0.775000000     4.814000000    -0.068000000
C    -0.247000000     4.921000000    -1.033000000
H    -1.110000000     5.580000000    -0.990000000
H     1.475000000     6.059000000     1.572000000
C    -1.204000000     4.189000000     2.389000000
H    -1.846000000     4.952000000     1.958000000
C    -1.722000000     3.077000000     3.096000000
C    -3.279000000     2.847000000     3.257000000
H    -3.810000000     3.801000000     3.276000000
H    -3.482000000     2.414000000     4.239000000
C    -3.918000000     1.841000000     2.278000000
C    -4.502000000     2.217000000     1.060000000
H    -4.430000000     3.293000000     0.920000000
C    -3.769000000     0.485000000     2.533000000
C    -4.211000000    -0.449000000     1.575000000
H    -4.142000000    -1.492000000     1.871000000
C    -4.749000000    -0.067000000     0.375000000
O    -5.122000000    -1.018000000    -0.567000000
C    -4.168000000    -1.306000000    -1.619000000
C    -3.983000000    -2.787000000    -1.865000000
C    -3.777000000    -3.346000000    -3.121000000
H    -4.023000000    -2.689000000    -3.951000000
C    -3.778000000    -3.723000000    -0.769000000
H    -3.967000000    -3.317000000     0.222000000
O    -4.628000000    -0.573000000    -2.840000000
H    -3.249000000    -0.756000000    -1.367000000
C    -4.965000000     1.299000000     0.131000000
C    -5.439000000     1.750000000    -1.220000000
H    -5.885000000     2.740000000    -1.102000000
H    -6.213000000     1.084000000    -1.607000000
C    -4.268000000     1.804000000    -2.221000000
C    -3.391000000     2.966000000    -2.350000000
H    -3.647000000     3.859000000    -1.786000000
C    -3.963000000     0.694000000    -3.009000000
C    -2.791000000     0.629000000    -3.752000000
H    -2.483000000    -0.289000000    -4.246000000
C    -1.836000000     1.724000000    -3.680000000
O    -0.646000000     1.524000000    -4.361000000
C     0.479000000     1.405000000    -3.587000000
C     1.491000000     0.351000000    -4.086000000
C     0.952000000    -0.913000000    -4.327000000
H    -0.096000000    -1.185000000    -4.226000000
C     2.873000000     0.597000000    -4.073000000
H     3.174000000     1.568000000    -3.686000000
O     1.094000000     2.594000000    -3.639000000
H     0.166000000     1.256000000    -2.543000000
C    -2.210000000     2.893000000    -3.056000000
C    -1.364000000     4.164000000    -3.168000000
H    -2.000000000     5.018000000    -2.924000000
H    -1.019000000     4.336000000    -4.190000000
C    -0.180000000     4.156000000    -2.218000000
C     1.001000000     3.443000000    -2.527000000
C     2.006000000     3.402000000    -1.626000000
H     2.834000000     2.719000000    -1.795000000
C     1.989000000     4.089000000    -0.392000000
O     2.948000000     3.885000000     0.571000000
C     2.834000000     2.820000000     1.550000000
H     1.961000000     2.210000000     1.275000000
C     4.088000000     1.975000000     1.620000000
C     4.290000000     1.059000000     2.687000000
H     3.460000000     0.925000000     3.376000000
C     5.094000000     1.957000000     0.648000000
H     5.185000000     2.709000000    -0.131000000
C     6.142000000     1.084000000     0.702000000
O     7.184000000     1.071000000    -0.233000000
C     6.343000000     0.292000000     1.799000000
H     7.217000000    -0.335000000     1.958000000
C     5.379000000     0.293000000     2.838000000
O     5.472000000    -0.569000000     3.838000000
C     4.697000000    -0.468000000     5.015000000
C     3.760000000    -1.434000000     5.215000000
H     3.581000000    -2.200000000     4.465000000
C     4.984000000     0.504000000     5.940000000
H     5.718000000     1.286000000     5.764000000
C     4.146000000     0.547000000     7.072000000
H     4.144000000     1.391000000     7.758000000
C     3.000000000    -0.290000000     7.208000000
H     2.293000000    -0.153000000     8.022000000
C     2.911000000    -1.346000000     6.381000000
O     1.925000000    -2.269000000     6.591000000
C     0.697000000    -2.263000000     5.891000000
C     0.118000000    -3.477000000     5.498000000
H     0.519000000    -4.410000000     5.886000000
C    -1.016000000    -3.551000000     4.628000000
O    -1.538000000    -4.775000000     4.225000000
C    -2.694000000    -4.958000000     3.356000000
C    -2.501000000    -5.407000000     2.120000000
H    -1.513000000    -5.729000000     1.800000000
C    -3.926000000    -4.415000000     3.692000000
H    -4.063000000    -3.920000000     4.650000000
C    -4.990000000    -4.423000000     2.828000000
H    -5.935000000    -4.031000000     3.194000000
C    -4.899000000    -5.079000000     1.618000000
H    -5.727000000    -5.204000000     0.926000000
C    -3.629000000    -5.527000000     1.285000000
O    -3.421000000    -5.991000000     0.016000000
C    -3.528000000    -5.077000000    -0.991000000
C    -3.217000000    -5.536000000    -2.222000000
H    -2.880000000    -6.545000000    -2.444000000
C    -3.394000000    -4.645000000    -3.342000000
O    -3.051000000    -5.053000000    -4.685000000
C    -2.019000000    -4.403000000    -5.437000000
C    -0.814000000    -4.245000000    -4.840000000
H    -0.598000000    -4.583000000    -3.829000000
C    -2.250000000    -3.815000000    -6.696000000
H    -3.206000000    -3.849000000    -7.212000000
C    -1.261000000    -3.045000000    -7.318000000
H    -1.505000000    -2.659000000    -8.304000000
C    -0.002000000    -2.975000000    -6.816000000
H     0.810000000    -2.453000000    -7.315000000
C     0.168000000    -3.511000000    -5.542000000
O     1.391000000    -3.229000000    -4.947000000
C     1.821000000    -1.905000000    -4.737000000
C     3.151000000    -1.690000000    -4.662000000
H     3.858000000    -2.507000000    -4.787000000
C     3.682000000    -0.453000000    -4.322000000
O     5.024000000    -0.332000000    -4.203000000
C     5.703000000     0.647000000    -3.544000000
C     6.020000000     1.874000000    -4.215000000
H     5.860000000     2.016000000    -5.281000000
C     6.731000000     2.834000000    -3.498000000
H     6.888000000     3.816000000    -3.937000000
C     7.188000000     2.550000000    -2.156000000
H     7.718000000     3.321000000    -1.602000000
C     6.958000000     1.271000000    -1.579000000
C     6.260000000     0.344000000    -2.320000000
H     6.040000000    -0.660000000    -1.968000000
O    -0.307000000    -6.994000000    -1.196000000
H    -0.404000000    -7.035000000    -2.147000000
H     0.066000000    -6.128000000    -1.030000000
O     5.795000000    -7.008000000    -2.388000000
H     4.914000000    -6.717000000    -2.150000000
H     5.669000000    -7.535000000    -3.176000000
O     4.179000000    -6.307000000     0.364000000
H     3.746000000    -6.239000000    -0.487000000
H     3.623000000    -5.801000000     0.956000000
O     2.335000000    -8.706000000    -4.331000000
H     1.868000000    -8.835000000    -3.505000000
H     1.926000000    -7.933000000    -4.720000000
O     3.209000000    -4.632000000    -6.710000000
H     3.039000000    -4.239000000    -7.566000000
H     2.451000000    -4.388000000    -6.179000000
O     6.632000000    -6.535000000     1.562000000
H     5.828000000    -6.553000000     1.044000000
H     6.949000000    -5.635000000     1.481000000
O     6.565000000    -4.092000000    -3.419000000
H     6.883000000    -3.964000000    -2.525000000
H     6.348000000    -5.023000000    -3.465000000
O     2.896000000    -9.133000000     0.357000000
H     2.896000000    -9.099000000     1.313000000
H     3.406000000    -8.368000000     0.090000000
O    -0.546000000    -7.589000000    -3.880000000
H    -0.132000000    -7.347000000    -4.709000000
H    -0.841000000    -8.490000000    -4.014000000
O    -2.043000000    -8.486000000     0.261000000
H    -1.428000000    -7.972000000    -0.263000000
H    -2.891000000    -8.067000000     0.113000000
O     1.005000000    -6.864000000     1.764000000
H     0.344000000    -7.032000000     1.093000000
H     1.358000000    -6.003000000     1.542000000
O     4.400000000    -2.832000000     0.512000000
H     3.959000000    -2.039000000     0.207000000
H     3.691000000    -3.458000000     0.661000000
O     2.796000000    -8.368000000     3.451000000
H     2.160000000    -7.862000000     2.946000000
H     2.616000000    -8.138000000     4.362000000
O     1.144000000    -9.507000000    -1.863000000
H     0.640000000    -8.765000000    -1.529000000
H     1.980000000    -9.457000000    -1.399000000
O     2.816000000    -7.164000000     5.937000000
H     2.767000000    -7.602000000     6.787000000
H     3.008000000    -6.250000000     6.149000000
O    -1.955000000    -9.745000000     2.956000000
H    -1.124000000   -10.212000000     3.046000000
H    -1.879000000    -9.277000000     2.125000000
O     3.140000000    -5.690000000    -2.226000000
H     3.166000000    -5.043000000    -2.931000000
H     2.431000000    -5.394000000    -1.655000000
O     7.110000000    -3.948000000     0.694000000
H     7.387000000    -3.340000000     0.008000000
H     6.157000000    -3.856000000     0.725000000
O     5.463000000    -9.009000000     3.127000000
H     5.833000000    -8.180000000     2.822000000
H     4.581000000    -8.782000000     3.424000000
