201
-1255.98083
C    -1.372000000    -1.859000000     4.452000000
H    -2.223000000    -1.989000000     3.790000000
C    -0.753000000    -0.575000000     4.476000000
C     0.463000000    -0.429000000     5.136000000
H     0.926000000     0.545000000     5.274000000
C    -1.470000000     0.675000000     3.803000000
O    -2.915000000     0.520000000     3.833000000
H    -1.131000000     0.706000000     2.758000000
O    -1.066000000     1.952000000     4.434000000
C    -0.733000000     2.882000000     3.525000000
C     0.612000000     3.101000000     3.344000000
H     1.357000000     2.570000000     3.931000000
C     1.016000000     3.880000000     2.250000000
O     2.348000000     3.910000000     1.857000000
C     0.089000000     4.591000000     1.475000000
C     0.614000000     5.476000000     0.268000000
H    -0.048000000     6.337000000     0.152000000
C     0.830000000     4.714000000    -1.015000000
C    -0.262000000     4.594000000    -1.885000000
H    -1.224000000     5.025000000    -1.620000000
H     1.560000000     5.856000000     0.658000000
C    -1.302000000     4.478000000     1.784000000
H    -2.082000000     5.023000000     1.257000000
C    -1.652000000     3.648000000     2.831000000
C    -3.156000000     3.315000000     3.032000000
H    -3.788000000     4.171000000     2.785000000
H    -3.330000000     3.123000000     4.093000000
C    -3.715000000     2.133000000     2.241000000
C    -4.223000000     2.355000000     0.949000000
H    -4.289000000     3.363000000     0.548000000
C    -3.627000000     0.814000000     2.687000000
C    -4.169000000    -0.238000000     1.997000000
H    -3.943000000    -1.256000000     2.303000000
C    -4.619000000     0.004000000     0.673000000
O    -4.931000000    -1.152000000    -0.027000000
C    -3.978000000    -1.574000000    -1.023000000
C    -3.739000000    -3.086000000    -1.074000000
C    -3.085000000    -3.637000000    -2.211000000
H    -2.931000000    -2.989000000    -3.070000000
C    -4.060000000    -3.918000000     0.018000000
H    -4.633000000    -3.588000000     0.881000000
O    -4.245000000    -1.030000000    -2.426000000
H    -3.079000000    -1.109000000    -0.593000000
C    -4.653000000     1.327000000     0.137000000
C    -5.195000000     1.530000000    -1.254000000
H    -5.672000000     2.513000000    -1.235000000
H    -6.010000000     0.846000000    -1.500000000
C    -4.088000000     1.390000000    -2.288000000
C    -3.268000000     2.528000000    -2.558000000
H    -3.420000000     3.443000000    -1.991000000
C    -3.697000000     0.181000000    -2.847000000
C    -2.657000000     0.105000000    -3.754000000
H    -2.356000000    -0.848000000    -4.182000000
C    -1.893000000     1.257000000    -3.994000000
O    -0.848000000     1.095000000    -4.836000000
C     0.531000000     1.092000000    -4.240000000
C     1.421000000    -0.042000000    -4.779000000
C     0.866000000    -1.044000000    -5.550000000
H    -0.172000000    -0.987000000    -5.868000000
C     2.717000000    -0.223000000    -4.216000000
H     3.045000000     0.591000000    -3.574000000
O     1.197000000     2.387000000    -4.414000000
H     0.385000000     1.006000000    -3.153000000
C    -2.177000000     2.468000000    -3.436000000
C    -1.393000000     3.730000000    -3.943000000
H    -1.914000000     4.690000000    -3.953000000
H    -1.032000000     3.632000000    -4.969000000
C    -0.149000000     3.876000000    -3.023000000
C     1.080000000     3.289000000    -3.380000000
C     2.166000000     3.365000000    -2.518000000
H     3.114000000     2.868000000    -2.705000000
C     2.048000000     4.093000000    -1.357000000
O     2.961000000     3.947000000    -0.439000000
C     2.722000000     3.145000000     0.709000000
H     1.981000000     2.367000000     0.474000000
C     3.958000000     2.312000000     1.170000000
C     4.208000000     2.018000000     2.537000000
H     3.559000000     2.399000000     3.321000000
C     4.867000000     1.835000000     0.219000000
H     4.705000000     2.066000000    -0.830000000
C     5.991000000     1.201000000     0.603000000
O     6.880000000     0.628000000    -0.321000000
C     6.244000000     0.823000000     1.944000000
H     7.110000000     0.256000000     2.275000000
C     5.329000000     1.252000000     2.906000000
O     5.671000000     1.057000000     4.249000000
C     4.737000000     0.924000000     5.254000000
C     3.892000000    -0.193000000     5.349000000
H     4.004000000    -0.913000000     4.542000000
C     4.560000000     1.916000000     6.201000000
H     5.268000000     2.739000000     6.148000000
C     3.633000000     1.744000000     7.306000000
H     3.532000000     2.470000000     8.109000000
C     2.896000000     0.575000000     7.371000000
H     2.167000000     0.512000000     8.176000000
C     3.023000000    -0.407000000     6.410000000
O     2.208000000    -1.475000000     6.528000000
C     0.998000000    -1.563000000     5.777000000
C     0.377000000    -2.826000000     5.676000000
H     0.755000000    -3.722000000     6.161000000
C    -0.770000000    -2.910000000     5.018000000
O    -1.258000000    -4.210000000     4.878000000
C    -2.467000000    -4.559000000     4.271000000
C    -2.486000000    -5.099000000     2.965000000
H    -1.579000000    -5.314000000     2.407000000
C    -3.690000000    -4.295000000     4.914000000
H    -3.674000000    -3.790000000     5.877000000
C    -4.958000000    -4.661000000     4.309000000
H    -5.903000000    -4.483000000     4.817000000
C    -4.978000000    -5.228000000     3.044000000
H    -5.917000000    -5.590000000     2.633000000
C    -3.728000000    -5.380000000     2.405000000
O    -3.688000000    -5.998000000     1.165000000
C    -3.520000000    -5.231000000     0.005000000
C    -2.819000000    -5.720000000    -1.069000000
H    -2.483000000    -6.751000000    -1.144000000
C    -2.689000000    -4.975000000    -2.244000000
O    -2.057000000    -5.479000000    -3.361000000
C    -1.818000000    -4.834000000    -4.537000000
C    -0.492000000    -4.429000000    -4.883000000
H     0.368000000    -4.586000000    -4.238000000
C    -2.886000000    -4.488000000    -5.392000000
H    -3.830000000    -4.911000000    -5.059000000
C    -2.669000000    -3.759000000    -6.574000000
H    -3.572000000    -3.427000000    -7.079000000
C    -1.379000000    -3.446000000    -6.956000000
H    -1.223000000    -2.964000000    -7.918000000
C    -0.263000000    -3.674000000    -6.093000000
O     0.989000000    -3.281000000    -6.423000000
C     1.637000000    -2.194000000    -5.851000000
C     2.949000000    -2.381000000    -5.265000000
H     3.551000000    -3.278000000    -5.385000000
C     3.510000000    -1.362000000    -4.523000000
O     4.771000000    -1.482000000    -4.011000000
C     5.546000000    -0.451000000    -3.540000000
C     6.089000000     0.532000000    -4.376000000
H     5.996000000     0.506000000    -5.458000000
C     6.941000000     1.547000000    -3.906000000
H     7.490000000     2.165000000    -4.612000000
C     7.068000000     1.618000000    -2.530000000
H     7.591000000     2.454000000    -2.074000000
C     6.623000000     0.668000000    -1.644000000
C     5.849000000    -0.374000000    -2.189000000
H     5.578000000    -1.087000000    -1.415000000
O    -0.971000000    -8.619000000     0.141000000
H    -0.575000000    -8.793000000    -0.713000000
H    -0.405000000    -7.958000000     0.538000000
O     4.198000000    -3.242000000     0.005000000
H     3.290000000    -3.227000000     0.307000000
H     4.200000000    -3.871000000    -0.716000000
O     2.426000000    -8.844000000     5.963000000
H     2.335000000    -9.308000000     5.131000000
H     1.885000000    -9.342000000     6.575000000
O     2.390000000   -10.584000000     1.655000000
H     3.183000000   -11.033000000     1.948000000
H     2.634000000   -10.189000000     0.818000000
O     3.144000000    -6.688000000    -0.417000000
H     3.742000000    -6.917000000     0.294000000
H     2.279000000    -6.674000000    -0.008000000
O     2.467000000    -5.937000000     4.902000000
H     2.069000000    -5.962000000     4.032000000
H     1.898000000    -6.487000000     5.441000000
O     4.006000000    -3.929000000     5.756000000
H     3.510000000    -4.632000000     5.337000000
H     3.394000000    -3.193000000     5.791000000
O     0.853000000   -10.273000000     4.004000000
H     0.379000000    -9.582000000     3.541000000
H     1.461000000   -10.623000000     3.354000000
O     4.917000000    -7.697000000     4.651000000
H     4.089000000    -7.331000000     4.961000000
H     4.930000000    -8.589000000     4.999000000
O     4.966000000    -7.415000000     1.615000000
H     5.665000000    -7.974000000     1.274000000
H     4.852000000    -7.701000000     2.521000000
O    -0.324000000    -8.908000000    -2.631000000
H    -1.231000000    -9.159000000    -2.808000000
H     0.179000000    -9.709000000    -2.774000000
O    -3.171000000    -9.509000000     3.294000000
H    -2.746000000   -10.225000000     3.766000000
H    -2.532000000    -8.797000000     3.314000000
O    -0.705000000    -8.246000000     2.995000000
H    -0.980000000    -8.511000000     2.117000000
H    -0.019000000    -7.595000000     2.844000000
O     3.221000000    -4.736000000    -2.350000000
H     2.271000000    -4.673000000    -2.448000000
H     3.357000000    -5.538000000    -1.846000000
O    -0.138000000    -6.776000000     6.052000000
H    -0.459000000    -6.141000000     5.412000000
H    -0.509000000    -7.611000000     5.769000000
O     0.671000000    -6.414000000    -1.845000000
H     0.511000000    -6.432000000    -0.902000000
H     0.303000000    -7.236000000    -2.167000000
O     5.262000000    -2.373000000     2.717000000
H     4.856000000    -2.262000000     1.858000000
H     5.451000000    -3.310000000     2.774000000
O    -3.135000000   -10.234000000     0.694000000
H    -3.498000000    -9.960000000     1.536000000
H    -2.367000000    -9.675000000     0.571000000
O     5.912000000    -4.902000000     2.602000000
H     6.432000000    -5.551000000     3.076000000
H     5.499000000    -5.396000000     1.894000000
