201
-1255.74747
C    -1.763000000    -1.378000000     4.721000000
H    -2.687000000    -1.256000000     4.162000000
C    -0.858000000    -0.360000000     4.714000000
C     0.407000000    -0.562000000     5.232000000
H     1.039000000     0.310000000     5.378000000
C    -1.295000000     0.923000000     4.040000000
O    -2.717000000     1.171000000     4.145000000
H    -0.979000000     0.776000000     2.996000000
O    -0.672000000     2.111000000     4.636000000
C    -0.183000000     2.954000000     3.605000000
C     1.173000000     2.919000000     3.315000000
H     1.783000000     2.124000000     3.737000000
C     1.675000000     3.663000000     2.220000000
O     3.034000000     3.541000000     1.902000000
C     0.856000000     4.574000000     1.538000000
C     1.414000000     5.441000000     0.447000000
H     0.878000000     6.386000000     0.344000000
C     1.392000000     4.707000000    -0.892000000
C     0.250000000     4.701000000    -1.630000000
H    -0.634000000     5.248000000    -1.312000000
H     2.444000000     5.564000000     0.788000000
C    -0.512000000     4.606000000     1.876000000
H    -1.100000000     5.321000000     1.306000000
C    -1.018000000     3.819000000     2.917000000
C    -2.500000000     3.897000000     3.264000000
H    -2.793000000     4.935000000     3.089000000
H    -2.615000000     3.807000000     4.346000000
C    -3.302000000     2.800000000     2.492000000
C    -3.885000000     3.099000000     1.276000000
H    -3.844000000     4.138000000     0.959000000
C    -3.326000000     1.456000000     2.993000000
C    -3.994000000     0.486000000     2.282000000
H    -4.177000000    -0.513000000     2.670000000
C    -4.528000000     0.702000000     0.979000000
O    -5.022000000    -0.343000000     0.162000000
C    -4.165000000    -0.931000000    -0.773000000
C    -4.151000000    -2.422000000    -0.813000000
C    -3.738000000    -3.097000000    -1.964000000
H    -3.620000000    -2.416000000    -2.803000000
C    -4.370000000    -3.150000000     0.354000000
H    -4.561000000    -2.647000000     1.298000000
O    -4.449000000    -0.242000000    -2.057000000
H    -3.133000000    -0.594000000    -0.596000000
C    -4.500000000     2.067000000     0.523000000
C    -4.949000000     2.344000000    -0.901000000
H    -5.212000000     3.397000000    -1.021000000
H    -5.906000000     1.893000000    -1.171000000
C    -3.870000000     2.058000000    -1.919000000
C    -3.030000000     3.096000000    -2.350000000
H    -3.202000000     4.114000000    -2.011000000
C    -3.659000000     0.769000000    -2.424000000
C    -2.549000000     0.453000000    -3.194000000
H    -2.319000000    -0.478000000    -3.707000000
C    -1.802000000     1.475000000    -3.595000000
O    -0.679000000     1.170000000    -4.427000000
C     0.616000000     1.018000000    -3.906000000
C     1.351000000    -0.242000000    -4.485000000
C     0.679000000    -1.434000000    -4.772000000
H    -0.402000000    -1.355000000    -4.685000000
C     2.781000000    -0.210000000    -4.578000000
H     3.368000000     0.658000000    -4.290000000
O     1.262000000     2.242000000    -4.159000000
H     0.580000000     0.808000000    -2.827000000
C    -2.008000000     2.803000000    -3.199000000
C    -1.078000000     3.959000000    -3.574000000
H    -1.676000000     4.873000000    -3.601000000
H    -0.801000000     3.860000000    -4.625000000
C     0.223000000     3.953000000    -2.767000000
C     1.289000000     3.199000000    -3.147000000
C     2.487000000     3.236000000    -2.388000000
H     3.229000000     2.576000000    -2.830000000
C     2.541000000     3.988000000    -1.269000000
O     3.672000000     3.717000000    -0.471000000
C     3.301000000     2.852000000     0.644000000
H     2.389000000     2.313000000     0.348000000
C     4.363000000     1.723000000     0.758000000
C     4.372000000     0.884000000     1.906000000
H     3.670000000     1.241000000     2.655000000
C     5.334000000     1.448000000    -0.192000000
H     5.315000000     2.071000000    -1.083000000
C     6.140000000     0.311000000    -0.194000000
O     7.060000000     0.114000000    -1.172000000
C     6.054000000    -0.591000000     0.874000000
H     6.728000000    -1.440000000     0.951000000
C     5.195000000    -0.244000000     1.944000000
O     5.058000000    -1.166000000     2.968000000
C     4.534000000    -0.750000000     4.190000000
C     3.461000000    -1.429000000     4.660000000
H     2.951000000    -2.178000000     4.060000000
C     5.186000000     0.118000000     5.030000000
H     6.045000000     0.674000000     4.661000000
C     4.763000000     0.333000000     6.376000000
H     5.262000000     1.056000000     7.015000000
C     3.718000000    -0.449000000     6.871000000
H     3.243000000    -0.274000000     7.833000000
C     3.076000000    -1.250000000     5.995000000
O     1.990000000    -2.034000000     6.453000000
C     0.772000000    -1.829000000     5.816000000
C    -0.165000000    -2.884000000     5.866000000
H     0.024000000    -3.874000000     6.274000000
C    -1.428000000    -2.679000000     5.235000000
O    -2.370000000    -3.714000000     5.290000000
C    -3.483000000    -3.769000000     4.600000000
C    -3.476000000    -4.166000000     3.248000000
H    -2.647000000    -4.324000000     2.563000000
C    -4.649000000    -3.529000000     5.317000000
H    -4.694000000    -3.099000000     6.314000000
C    -5.873000000    -3.933000000     4.734000000
H    -6.765000000    -3.770000000     5.334000000
C    -5.796000000    -4.562000000     3.464000000
H    -6.719000000    -4.985000000     3.077000000
C    -4.619000000    -4.716000000     2.740000000
O    -4.721000000    -5.287000000     1.443000000
C    -4.297000000    -4.560000000     0.362000000
C    -4.068000000    -5.194000000    -0.843000000
H    -4.166000000    -6.275000000    -0.911000000
C    -3.713000000    -4.482000000    -2.018000000
O    -3.456000000    -5.187000000    -3.182000000
C    -2.765000000    -4.687000000    -4.326000000
C    -1.402000000    -4.362000000    -4.276000000
H    -0.934000000    -4.537000000    -3.311000000
C    -3.501000000    -4.373000000    -5.466000000
H    -4.518000000    -4.743000000    -5.564000000
C    -2.847000000    -3.908000000    -6.619000000
H    -3.398000000    -3.838000000    -7.553000000
C    -1.482000000    -3.730000000    -6.595000000
H    -0.974000000    -3.525000000    -7.534000000
C    -0.707000000    -3.929000000    -5.438000000
O     0.702000000    -3.762000000    -5.380000000
C     1.371000000    -2.628000000    -5.085000000
C     2.758000000    -2.619000000    -5.112000000
H     3.423000000    -3.472000000    -5.221000000
C     3.469000000    -1.444000000    -4.887000000
O     4.815000000    -1.510000000    -4.983000000
C     5.716000000    -0.636000000    -4.448000000
C     6.371000000     0.275000000    -5.269000000
H     6.068000000     0.392000000    -6.306000000
C     7.210000000     1.249000000    -4.705000000
H     7.642000000     2.016000000    -5.343000000
C     7.448000000     1.180000000    -3.347000000
H     8.166000000     1.861000000    -2.898000000
C     6.854000000     0.217000000    -2.538000000
C     6.006000000    -0.740000000    -3.123000000
H     5.476000000    -1.520000000    -2.582000000
O     1.557000000    -7.832000000     2.811000000
H     2.241000000    -7.465000000     3.372000000
H     1.135000000    -8.499000000     3.352000000
O    -0.857000000    -7.886000000    -1.200000000
H    -0.428000000    -7.919000000    -2.054000000
H    -0.610000000    -7.035000000    -0.840000000
O     3.646000000    -6.554000000    -4.029000000
H     3.955000000    -7.401000000    -3.708000000
H     2.929000000    -6.321000000    -3.440000000
O    -3.271000000    -7.513000000     4.290000000
H    -3.590000000    -7.147000000     3.465000000
H    -2.537000000    -6.950000000     4.534000000
O     0.323000000    -9.444000000    -3.849000000
H    -0.394000000    -9.733000000    -4.413000000
H     0.573000000    -8.589000000    -4.198000000
O     2.339000000    -4.661000000     2.029000000
H     2.480000000    -5.040000000     2.897000000
H     1.458000000    -4.945000000     1.784000000
O    -0.264000000    -6.106000000     4.181000000
H    -0.480000000    -5.368000000     3.610000000
H     0.146000000    -6.747000000     3.599000000
O    -0.704000000    -9.521000000     3.982000000
H    -1.255000000   -10.075000000     4.534000000
H    -1.320000000    -9.062000000     3.411000000
O    -6.911000000    -7.985000000     1.096000000
H    -6.032000000    -7.638000000     0.947000000
H    -6.833000000    -8.495000000     1.903000000
O     5.468000000    -5.866000000     1.402000000
H     5.890000000    -6.642000000     1.031000000
H     4.848000000    -5.586000000     0.729000000
O     1.326000000   -10.497000000    -0.216000000
H     1.811000000    -9.756000000    -0.578000000
H     1.959000000   -10.949000000     0.342000000
O    -1.531000000    -7.796000000     1.543000000
H    -1.276000000    -8.283000000     0.759000000
H    -1.109000000    -6.942000000     1.442000000
O     4.263000000    -5.268000000    -1.274000000
H     3.818000000    -4.529000000    -0.858000000
H     3.629000000    -5.603000000    -1.908000000
O     2.379000000    -5.773000000     4.660000000
H     1.426000000    -5.778000000     4.569000000
H     2.529000000    -5.705000000     5.603000000
O     1.817000000    -7.362000000     0.009000000
H     1.327000000    -6.547000000     0.118000000
H     1.936000000    -7.691000000     0.900000000
O    -4.142000000    -8.285000000     1.488000000
H    -4.187000000    -8.992000000     0.845000000
H    -3.217000000    -8.038000000     1.509000000
O     1.479000000    -6.300000000    -2.454000000
H     0.966000000    -5.707000000    -1.905000000
H     1.721000000    -7.019000000    -1.871000000
O     2.837000000    -3.202000000    -0.162000000
H     2.168000000    -2.519000000    -0.128000000
H     2.736000000    -3.678000000     0.662000000
O    -2.655000000    -9.134000000    -2.990000000
H    -3.479000000    -8.672000000    -3.139000000
H    -2.293000000    -8.729000000    -2.202000000
