201
-1214.67069
C     0.129000000     1.013000000     4.739000000
H    -0.930000000     0.920000000     4.511000000
C     0.919000000     1.952000000     4.066000000
C     2.297000000     1.983000000     4.345000000
H     2.938000000     2.649000000     3.772000000
C     0.393000000     2.789000000     2.966000000
O    -0.918000000     3.187000000     3.340000000
H     0.248000000     2.108000000     2.115000000
O     1.205000000     4.004000000     2.735000000
C     1.356000000     4.328000000     1.417000000
C     2.500000000     3.803000000     0.831000000
H     3.235000000     3.289000000     1.445000000
C     2.606000000     3.796000000    -0.591000000
O     3.710000000     3.163000000    -1.118000000
C     1.639000000     4.349000000    -1.376000000
C     1.704000000     4.398000000    -2.961000000
H     1.251000000     5.216000000    -3.525000000
C     1.175000000     3.013000000    -3.375000000
C    -0.059000000     3.053000000    -4.036000000
H    -0.650000000     3.951000000    -4.195000000
H     2.770000000     4.324000000    -3.185000000
C     0.600000000     5.089000000    -0.753000000
H    -0.134000000     5.629000000    -1.344000000
C     0.391000000     4.956000000     0.611000000
C    -0.904000000     5.353000000     1.326000000
H    -1.371000000     6.102000000     0.683000000
H    -0.689000000     5.640000000     2.358000000
C    -1.829000000     4.096000000     1.380000000
C    -2.738000000     3.909000000     0.342000000
H    -2.641000000     4.622000000    -0.473000000
C    -1.917000000     3.169000000     2.402000000
C    -2.872000000     2.140000000     2.522000000
H    -2.984000000     1.414000000     3.323000000
C    -3.745000000     1.989000000     1.470000000
O    -4.615000000     0.987000000     1.494000000
C    -4.288000000    -0.171000000     0.663000000
C    -4.598000000    -1.466000000     1.398000000
C    -5.022000000    -2.546000000     0.659000000
H    -5.352000000    -2.560000000    -0.376000000
C    -4.338000000    -1.619000000     2.754000000
H    -3.755000000    -0.839000000     3.236000000
O    -5.002000000    -0.122000000    -0.588000000
H    -3.213000000    -0.081000000     0.445000000
C    -3.768000000     2.922000000     0.383000000
C    -4.648000000     2.796000000    -0.840000000
H    -4.801000000     3.757000000    -1.335000000
H    -5.619000000     2.442000000    -0.486000000
C    -4.217000000     1.811000000    -1.900000000
C    -3.487000000     2.288000000    -3.044000000
H    -3.285000000     3.340000000    -3.226000000
C    -4.387000000     0.397000000    -1.706000000
C    -3.803000000    -0.475000000    -2.562000000
H    -3.852000000    -1.536000000    -2.335000000
C    -3.168000000    -0.040000000    -3.762000000
O    -2.491000000    -0.970000000    -4.416000000
C    -1.092000000    -1.124000000    -4.076000000
C    -0.627000000    -2.525000000    -3.769000000
C    -1.401000000    -3.405000000    -2.978000000
H    -2.336000000    -3.134000000    -2.493000000
C     0.591000000    -3.048000000    -4.262000000
H     1.288000000    -2.333000000    -4.691000000
O    -0.308000000    -0.455000000    -5.111000000
H    -0.806000000    -0.584000000    -3.162000000
C    -3.011000000     1.330000000    -3.986000000
C    -2.009000000     1.846000000    -5.153000000
H    -2.314000000     2.837000000    -5.498000000
H    -1.970000000     1.160000000    -6.001000000
C    -0.622000000     1.914000000    -4.603000000
C     0.224000000     0.770000000    -4.716000000
C     1.515000000     0.776000000    -4.104000000
H     2.133000000    -0.101000000    -4.276000000
C     2.006000000     1.889000000    -3.467000000
O     3.183000000     1.692000000    -2.880000000
C     3.392000000     1.747000000    -1.433000000
H     2.453000000     1.388000000    -0.986000000
C     4.360000000     0.712000000    -0.892000000
C     5.104000000     1.017000000     0.215000000
H     4.966000000     1.956000000     0.744000000
C     4.578000000    -0.497000000    -1.604000000
H     3.990000000    -0.712000000    -2.493000000
C     5.571000000    -1.407000000    -1.204000000
O     5.882000000    -2.559000000    -1.934000000
C     6.272000000    -1.171000000    -0.003000000
H     6.810000000    -2.023000000     0.406000000
C     6.100000000     0.074000000     0.635000000
O     6.806000000     0.348000000     1.800000000
C     6.456000000     1.143000000     2.844000000
C     5.370000000     0.900000000     3.607000000
H     4.764000000     0.031000000     3.363000000
C     7.345000000     2.169000000     3.169000000
H     8.232000000     2.338000000     2.565000000
C     6.992000000     2.997000000     4.266000000
H     7.599000000     3.877000000     4.462000000
C     5.854000000     2.805000000     5.064000000
H     5.668000000     3.403000000     5.953000000
C     5.129000000     1.675000000     4.737000000
O     4.113000000     1.326000000     5.577000000
C     2.832000000     1.148000000     5.281000000
C     2.015000000     0.225000000     5.942000000
H     2.489000000    -0.275000000     6.783000000
C     0.688000000     0.142000000     5.637000000
O    -0.023000000    -0.764000000     6.403000000
C    -1.373000000    -0.861000000     6.242000000
C    -2.026000000    -1.891000000     5.521000000
H    -1.523000000    -2.680000000     4.968000000
C    -2.174000000     0.072000000     6.860000000
H    -1.702000000     0.954000000     7.286000000
C    -3.599000000    -0.071000000     6.878000000
H    -4.250000000     0.539000000     7.499000000
C    -4.200000000    -1.087000000     6.146000000
H    -5.286000000    -1.118000000     6.111000000
C    -3.436000000    -1.994000000     5.463000000
O    -4.006000000    -3.071000000     4.730000000
C    -4.429000000    -2.876000000     3.420000000
C    -4.883000000    -3.922000000     2.629000000
H    -5.028000000    -4.911000000     3.056000000
C    -5.203000000    -3.781000000     1.306000000
O    -5.579000000    -4.856000000     0.601000000
C    -4.992000000    -5.216000000    -0.576000000
C    -3.583000000    -5.074000000    -0.616000000
H    -3.069000000    -4.563000000     0.195000000
C    -5.689000000    -5.855000000    -1.611000000
H    -6.773000000    -5.833000000    -1.529000000
C    -4.956000000    -6.331000000    -2.707000000
H    -5.394000000    -6.774000000    -3.598000000
C    -3.530000000    -6.095000000    -2.828000000
H    -3.026000000    -6.455000000    -3.721000000
C    -2.897000000    -5.570000000    -1.734000000
O    -1.547000000    -5.461000000    -1.820000000
C    -0.842000000    -4.565000000    -2.593000000
C     0.322000000    -5.059000000    -3.077000000
H     0.799000000    -6.000000000    -2.817000000
C     1.033000000    -4.346000000    -4.075000000
O     2.305000000    -4.780000000    -4.391000000
C     3.358000000    -3.893000000    -4.250000000
C     3.820000000    -3.416000000    -5.442000000
H     3.282000000    -3.766000000    -6.320000000
C     4.828000000    -2.445000000    -5.490000000
H     5.147000000    -1.963000000    -6.410000000
C     5.530000000    -2.175000000    -4.329000000
H     6.307000000    -1.434000000    -4.501000000
C     5.210000000    -2.829000000    -3.122000000
C     4.101000000    -3.652000000    -3.103000000
H     3.768000000    -4.142000000    -2.192000000
O     6.743000000    -4.867000000    -0.057000000
H     6.265000000    -4.123000000    -0.423000000
H     7.321000000    -4.481000000     0.600000000
O     2.351000000    -6.038000000     4.015000000
H     1.510000000    -5.699000000     3.707000000
H     2.980000000    -5.352000000     3.796000000
O     1.100000000    -2.740000000     3.907000000
H     1.512000000    -2.037000000     3.404000000
H     0.817000000    -3.373000000     3.247000000
O     2.343000000    -3.103000000     6.914000000
H     2.925000000    -3.347000000     6.195000000
H     1.473000000    -3.070000000     6.518000000
O     3.981000000    -4.878000000     1.110000000
H     3.075000000    -4.969000000     0.813000000
H     4.366000000    -5.743000000     0.970000000
O    -0.334000000    -8.772000000    -0.835000000
H    -0.355000000    -9.703000000    -1.055000000
H    -1.226000000    -8.467000000    -0.998000000
O    -0.156000000    -8.165000000     4.298000000
H     0.095000000    -8.032000000     3.384000000
H     0.661000000    -8.396000000     4.739000000
O     0.077000000   -10.391000000     2.146000000
H     0.361000000   -10.801000000     1.329000000
H     0.477000000    -9.522000000     2.129000000
O     6.631000000    -4.863000000     3.383000000
H     6.054000000    -5.576000000     3.109000000
H     6.341000000    -4.647000000     4.269000000
O     3.212000000    -8.627000000     2.768000000
H     3.304000000    -9.251000000     3.488000000
H     2.929000000    -7.815000000     3.188000000
O     4.339000000    -2.177000000     2.440000000
H     3.454000000    -1.890000000     2.665000000
H     4.217000000    -3.039000000     2.042000000
O     0.436000000    -7.667000000     1.708000000
H     0.228000000    -8.015000000     0.841000000
H     0.621000000    -6.741000000     1.556000000
O     3.112000000    -7.058000000    -0.791000000
H     2.648000000    -7.875000000    -0.974000000
H     2.453000000    -6.495000000    -0.385000000
O     4.546000000    -4.624000000     5.453000000
H     4.985000000    -3.981000000     6.011000000
H     4.605000000    -5.445000000     5.942000000
O     1.835000000    -0.861000000     2.207000000
H     0.958000000    -1.118000000     2.489000000
H     1.804000000    -0.909000000     1.252000000
O     5.709000000    -7.615000000     0.219000000
H     4.800000000    -7.693000000    -0.072000000
H     5.879000000    -6.673000000     0.223000000
O     4.364000000    -7.247000000     6.041000000
H     3.893000000    -6.741000000     5.379000000
H     3.891000000    -8.078000000     6.088000000
O     4.961000000    -6.971000000    -2.872000000
H     4.377000000    -6.803000000    -2.132000000
H     4.438000000    -7.502000000    -3.473000000
O    -1.479000000    -5.299000000     4.232000000
H    -0.870000000    -5.099000000     3.522000000
H    -1.869000000    -6.138000000     3.985000000
