201
-1255.22732
C    -1.492000000     1.359000000     4.691000000
H    -2.529000000     1.401000000     4.370000000
C    -0.509000000     2.187000000     4.035000000
C     0.850000000     2.093000000     4.420000000
H     1.570000000     2.558000000     3.751000000
C    -0.860000000     2.949000000     2.754000000
O    -2.336000000     3.252000000     2.784000000
H    -0.602000000     2.283000000     1.917000000
O    -0.141000000     4.154000000     2.582000000
C     0.336000000     4.446000000     1.309000000
C     1.664000000     4.177000000     1.085000000
H     2.337000000     3.962000000     1.911000000
C     2.164000000     4.171000000    -0.214000000
O     3.498000000     3.770000000    -0.478000000
C     1.339000000     4.621000000    -1.248000000
C     1.807000000     4.710000000    -2.705000000
H     1.273000000     5.403000000    -3.358000000
C     1.745000000     3.282000000    -3.280000000
C     0.594000000     2.940000000    -4.018000000
H    -0.206000000     3.671000000    -4.112000000
H     2.832000000     5.076000000    -2.628000000
C     0.014000000     4.860000000    -0.958000000
H    -0.652000000     5.195000000    -1.749000000
C    -0.511000000     4.785000000     0.268000000
C    -1.993000000     5.040000000     0.479000000
H    -2.494000000     5.677000000    -0.254000000
H    -2.149000000     5.553000000     1.430000000
C    -2.845000000     3.813000000     0.496000000
C    -3.523000000     3.437000000    -0.673000000
H    -3.510000000     4.022000000    -1.589000000
C    -3.061000000     2.989000000     1.624000000
C    -3.837000000     1.808000000     1.536000000
H    -3.997000000     1.220000000     2.436000000
C    -4.513000000     1.498000000     0.380000000
O    -5.024000000     0.256000000     0.241000000
C    -4.165000000    -0.822000000    -0.167000000
C    -4.258000000    -2.067000000     0.683000000
C    -4.029000000    -3.299000000     0.082000000
H    -3.769000000    -3.404000000    -0.968000000
C    -4.510000000    -1.943000000     2.083000000
H    -4.722000000    -0.947000000     2.464000000
O    -4.431000000    -1.182000000    -1.530000000
H    -3.146000000    -0.407000000    -0.174000000
C    -4.301000000     2.278000000    -0.706000000
C    -4.841000000     1.813000000    -2.042000000
H    -5.147000000     2.631000000    -2.697000000
H    -5.747000000     1.244000000    -1.825000000
C    -3.983000000     0.861000000    -2.816000000
C    -3.071000000     1.465000000    -3.724000000
H    -3.150000000     2.548000000    -3.777000000
C    -3.829000000    -0.503000000    -2.570000000
C    -2.929000000    -1.307000000    -3.297000000
H    -2.877000000    -2.389000000    -3.208000000
C    -2.001000000    -0.671000000    -4.030000000
O    -1.011000000    -1.402000000    -4.661000000
C     0.386000000    -1.410000000    -4.144000000
C     0.912000000    -2.841000000    -3.893000000
C     0.014000000    -3.926000000    -3.741000000
H    -1.025000000    -3.969000000    -4.058000000
C     2.250000000    -3.024000000    -3.517000000
H     2.963000000    -2.216000000    -3.660000000
O     1.250000000    -0.562000000    -4.861000000
H     0.308000000    -1.003000000    -3.125000000
C    -2.053000000     0.715000000    -4.305000000
C    -1.036000000     1.423000000    -5.222000000
H    -1.382000000     2.401000000    -5.563000000
H    -0.799000000     0.830000000    -6.108000000
C     0.293000000     1.718000000    -4.505000000
C     1.310000000     0.683000000    -4.302000000
C     2.491000000     0.996000000    -3.593000000
H     3.209000000     0.221000000    -3.337000000
C     2.660000000     2.240000000    -3.101000000
O     3.734000000     2.355000000    -2.310000000
C     3.584000000     2.414000000    -0.876000000
H     2.666000000     1.918000000    -0.528000000
C     4.760000000     1.737000000    -0.228000000
C     5.150000000     2.031000000     1.080000000
H     4.642000000     2.770000000     1.694000000
C     5.414000000     0.705000000    -0.891000000
H     5.212000000     0.467000000    -1.932000000
C     6.440000000    -0.120000000    -0.239000000
O     6.916000000    -1.251000000    -0.787000000
C     6.734000000     0.246000000     1.039000000
H     7.376000000    -0.376000000     1.658000000
C     6.154000000     1.352000000     1.747000000
O     6.447000000     1.614000000     3.119000000
C     5.506000000     2.125000000     3.958000000
C     4.446000000     1.332000000     4.479000000
H     4.527000000     0.272000000     4.250000000
C     5.547000000     3.477000000     4.281000000
H     6.351000000     4.030000000     3.803000000
C     4.586000000     4.046000000     5.077000000
H     4.562000000     5.129000000     5.175000000
C     3.572000000     3.188000000     5.644000000
H     2.737000000     3.608000000     6.200000000
C     3.532000000     1.865000000     5.317000000
O     2.557000000     1.061000000     5.753000000
C     1.208000000     1.307000000     5.498000000
C     0.250000000     0.576000000     6.157000000
H     0.544000000    -0.035000000     7.007000000
C    -1.064000000     0.490000000     5.706000000
O    -1.863000000    -0.406000000     6.424000000
C    -3.148000000    -0.783000000     6.211000000
C    -3.477000000    -1.744000000     5.228000000
H    -2.712000000    -2.230000000     4.628000000
C    -4.087000000    -0.077000000     6.885000000
H    -3.759000000     0.635000000     7.639000000
C    -5.468000000    -0.405000000     6.717000000
H    -6.303000000     0.014000000     7.272000000
C    -5.853000000    -1.350000000     5.714000000
H    -6.881000000    -1.646000000     5.524000000
C    -4.829000000    -2.005000000     4.974000000
O    -5.223000000    -2.960000000     4.056000000
C    -4.729000000    -3.096000000     2.771000000
C    -4.398000000    -4.327000000     2.224000000
H    -4.562000000    -5.336000000     2.592000000
C    -4.069000000    -4.423000000     0.850000000
O    -3.783000000    -5.666000000     0.316000000
C    -3.349000000    -5.886000000    -0.978000000
C    -2.017000000    -5.802000000    -1.386000000
H    -1.268000000    -5.664000000    -0.610000000
C    -4.341000000    -6.113000000    -1.992000000
H    -5.370000000    -6.177000000    -1.646000000
C    -4.058000000    -6.264000000    -3.293000000
H    -4.858000000    -6.223000000    -4.028000000
C    -2.696000000    -6.260000000    -3.694000000
H    -2.371000000    -6.357000000    -4.727000000
C    -1.711000000    -6.089000000    -2.719000000
O    -0.412000000    -6.260000000    -3.131000000
C     0.470000000    -5.186000000    -3.319000000
C     1.776000000    -5.302000000    -2.841000000
H     2.034000000    -6.286000000    -2.458000000
C     2.675000000    -4.281000000    -2.999000000
O     4.000000000    -4.554000000    -2.661000000
C     5.048000000    -3.597000000    -2.758000000
C     5.645000000    -3.542000000    -4.047000000
H     5.220000000    -4.108000000    -4.872000000
C     6.750000000    -2.753000000    -4.171000000
H     7.311000000    -2.742000000    -5.102000000
C     7.084000000    -1.882000000    -3.093000000
H     7.928000000    -1.203000000    -3.183000000
C     6.416000000    -1.909000000    -1.882000000
C     5.344000000    -2.760000000    -1.752000000
H     4.774000000    -2.717000000    -0.828000000
O     3.572000000    -8.257000000     2.156000000
H     3.728000000    -8.414000000     3.087000000
H     3.603000000    -7.304000000     2.066000000
O    -0.260000000    -4.580000000     2.571000000
H     0.340000000    -4.783000000     1.854000000
H    -0.405000000    -3.636000000     2.503000000
O     6.947000000    -5.280000000     3.752000000
H     6.577000000    -5.666000000     4.546000000
H     7.379000000    -4.481000000     4.054000000
O     6.106000000    -2.438000000     2.653000000
H     6.858000000    -2.817000000     2.197000000
H     5.358000000    -2.641000000     2.092000000
O     0.383000000    -3.366000000     5.780000000
H     0.611000000    -2.567000000     5.305000000
H     0.923000000    -4.046000000     5.377000000
O     6.835000000    -6.241000000     0.650000000
H     6.628000000    -5.608000000     1.337000000
H     7.294000000    -6.947000000     1.105000000
O     2.263000000    -5.189000000     4.909000000
H     2.805000000    -5.589000000     4.230000000
H     1.924000000    -5.929000000     5.412000000
O     3.669000000    -2.717000000     4.535000000
H     4.440000000    -2.726000000     3.968000000
H     3.319000000    -3.606000000     4.476000000
O    -0.831000000    -8.060000000     1.537000000
H    -0.215000000    -7.373000000     1.282000000
H    -1.089000000    -8.470000000     0.711000000
O     8.362000000    -3.229000000     0.934000000
H     8.089000000    -2.938000000     0.064000000
H     8.839000000    -4.044000000     0.775000000
O     4.398000000    -7.585000000    -3.095000000
H     3.679000000    -7.808000000    -3.687000000
H     3.995000000    -7.032000000    -2.426000000
O     1.163000000    -6.709000000     0.047000000
H     1.435000000    -5.877000000     0.434000000
H     1.961000000    -7.064000000    -0.344000000
O     6.402000000    -1.133000000     4.916000000
H     6.878000000    -0.311000000     4.800000000
H     6.302000000    -1.479000000     4.029000000
O     4.175000000    -6.556000000    -0.354000000
H     5.023000000    -6.122000000    -0.260000000
H     3.548000000    -5.946000000     0.034000000
O    -1.729000000    -6.454000000     4.086000000
H    -1.601000000    -7.254000000     3.577000000
H    -1.235000000    -5.786000000     3.611000000
O    -1.217000000    -1.828000000     2.858000000
H    -1.360000000    -1.234000000     2.121000000
H    -0.308000000    -1.676000000     3.115000000
O     7.792000000    -5.741000000    -1.826000000
H     7.935000000    -6.670000000    -1.645000000
H     7.432000000    -5.391000000    -1.011000000
O     4.115000000    -5.375000000     2.830000000
H     5.002000000    -5.221000000     3.152000000
H     4.013000000    -4.759000000     2.104000000
O     1.403000000    -1.509000000     4.014000000
H     1.598000000    -0.577000000     4.108000000
H     2.213000000    -1.950000000     4.268000000
