201
-1252.93214
C    -0.848000000     1.658000000     4.773000000
H    -1.750000000     1.347000000     4.251000000
C     0.027000000     2.592000000     4.176000000
C     1.235000000     2.882000000     4.745000000
H     1.983000000     3.516000000     4.276000000
C    -0.359000000     3.130000000     2.822000000
O    -1.744000000     3.496000000     2.762000000
H    -0.058000000     2.377000000     2.079000000
O     0.336000000     4.336000000     2.506000000
C     0.799000000     4.430000000     1.288000000
C     2.078000000     3.895000000     1.002000000
H     2.706000000     3.462000000     1.776000000
C     2.503000000     3.864000000    -0.330000000
O     3.674000000     3.150000000    -0.586000000
C     1.720000000     4.341000000    -1.385000000
C     2.197000000     4.113000000    -2.832000000
H     1.603000000     4.866000000    -3.354000000
C     1.860000000     2.797000000    -3.376000000
C     0.607000000     2.553000000    -3.957000000
H    -0.016000000     3.441000000    -4.034000000
H     3.270000000     4.297000000    -2.918000000
C     0.484000000     4.942000000    -1.099000000
H    -0.179000000     5.401000000    -1.828000000
C    -0.011000000     4.875000000     0.203000000
C    -1.465000000     5.308000000     0.416000000
H    -1.719000000     6.053000000    -0.340000000
H    -1.460000000     5.806000000     1.388000000
C    -2.402000000     4.104000000     0.470000000
C    -3.062000000     3.709000000    -0.721000000
H    -2.848000000     4.143000000    -1.695000000
C    -2.538000000     3.294000000     1.636000000
C    -3.427000000     2.250000000     1.597000000
H    -3.547000000     1.632000000     2.483000000
C    -4.224000000     1.973000000     0.508000000
O    -4.974000000     0.781000000     0.582000000
C    -4.386000000    -0.402000000    -0.047000000
C    -4.464000000    -1.711000000     0.746000000
C    -4.562000000    -2.976000000     0.074000000
H    -4.518000000    -2.951000000    -1.012000000
C    -4.295000000    -1.800000000     2.106000000
H    -4.123000000    -0.860000000     2.624000000
O    -4.898000000    -0.642000000    -1.370000000
H    -3.316000000    -0.155000000    -0.118000000
C    -4.060000000     2.720000000    -0.682000000
C    -4.746000000     2.265000000    -1.948000000
H    -4.808000000     3.147000000    -2.589000000
H    -5.732000000     1.823000000    -1.785000000
C    -3.997000000     1.200000000    -2.717000000
C    -3.006000000     1.589000000    -3.617000000
H    -2.657000000     2.597000000    -3.825000000
C    -4.115000000    -0.170000000    -2.464000000
C    -3.356000000    -1.152000000    -3.133000000
H    -3.433000000    -2.183000000    -2.796000000
C    -2.393000000    -0.749000000    -4.023000000
O    -1.471000000    -1.672000000    -4.404000000
C    -0.029000000    -1.743000000    -4.006000000
C     0.402000000    -3.183000000    -3.904000000
C    -0.535000000    -4.137000000    -3.646000000
H    -1.589000000    -3.939000000    -3.824000000
C     1.762000000    -3.567000000    -3.786000000
H     2.449000000    -2.747000000    -3.978000000
O     0.814000000    -0.991000000    -4.823000000
H    -0.003000000    -1.313000000    -2.993000000
C    -2.180000000     0.622000000    -4.259000000
C    -1.105000000     1.114000000    -5.236000000
H    -1.468000000     1.984000000    -5.786000000
H    -0.977000000     0.301000000    -5.953000000
C     0.205000000     1.273000000    -4.516000000
C     1.140000000     0.314000000    -4.395000000
C     2.347000000     0.523000000    -3.725000000
H     2.896000000    -0.401000000    -3.563000000
C     2.770000000     1.746000000    -3.265000000
O     3.832000000     1.701000000    -2.414000000
C     3.462000000     1.794000000    -0.990000000
H     2.416000000     1.541000000    -0.763000000
C     4.375000000     0.906000000    -0.150000000
C     4.872000000     1.296000000     1.084000000
H     4.688000000     2.343000000     1.314000000
C     4.750000000    -0.368000000    -0.582000000
H     4.160000000    -0.792000000    -1.391000000
C     5.592000000    -1.169000000     0.133000000
O     6.037000000    -2.342000000    -0.336000000
C     6.074000000    -0.706000000     1.397000000
H     6.734000000    -1.342000000     1.980000000
C     5.692000000     0.542000000     1.864000000
O     5.971000000     0.896000000     3.192000000
C     5.436000000     1.978000000     3.891000000
C     4.557000000     1.563000000     4.877000000
H     4.317000000     0.510000000     5.004000000
C     5.824000000     3.299000000     3.737000000
H     6.459000000     3.651000000     2.928000000
C     5.209000000     4.256000000     4.476000000
H     5.519000000     5.287000000     4.324000000
C     4.242000000     3.867000000     5.401000000
H     3.748000000     4.603000000     6.029000000
C     3.945000000     2.540000000     5.584000000
O     2.929000000     2.237000000     6.415000000
C     1.624000000     2.212000000     5.911000000
C     0.762000000     1.341000000     6.588000000
H     0.953000000     0.867000000     7.547000000
C    -0.426000000     1.052000000     5.953000000
O    -1.167000000     0.072000000     6.570000000
C    -2.414000000    -0.264000000     6.091000000
C    -2.629000000    -1.474000000     5.374000000
H    -1.837000000    -2.155000000     5.071000000
C    -3.562000000     0.441000000     6.499000000
H    -3.421000000     1.365000000     7.054000000
C    -4.815000000     0.106000000     6.061000000
H    -5.613000000     0.821000000     6.246000000
C    -5.009000000    -1.025000000     5.343000000
H    -6.012000000    -1.286000000     5.016000000
C    -3.920000000    -1.780000000     4.957000000
O    -4.109000000    -2.976000000     4.221000000
C    -4.326000000    -2.982000000     2.886000000
C    -4.499000000    -4.173000000     2.227000000
H    -4.626000000    -5.064000000     2.837000000
C    -4.541000000    -4.142000000     0.835000000
O    -4.482000000    -5.411000000     0.210000000
C    -4.063000000    -5.567000000    -1.075000000
C    -2.789000000    -6.054000000    -1.311000000
H    -2.105000000    -6.038000000    -0.466000000
C    -4.956000000    -5.427000000    -2.113000000
H    -5.981000000    -5.181000000    -1.851000000
C    -4.523000000    -5.649000000    -3.412000000
H    -5.261000000    -5.435000000    -4.181000000
C    -3.200000000    -6.025000000    -3.682000000
H    -2.824000000    -5.976000000    -4.701000000
C    -2.336000000    -6.202000000    -2.617000000
O    -0.995000000    -6.372000000    -2.887000000
C    -0.123000000    -5.433000000    -3.216000000
C     1.236000000    -5.724000000    -3.096000000
H     1.608000000    -6.642000000    -2.646000000
C     2.253000000    -4.840000000    -3.441000000
O     3.501000000    -5.160000000    -3.264000000
C     4.485000000    -4.231000000    -3.120000000
C     5.079000000    -3.603000000    -4.238000000
H     4.790000000    -3.977000000    -5.216000000
C     5.965000000    -2.516000000    -4.062000000
H     6.574000000    -2.084000000    -4.852000000
C     6.217000000    -2.133000000    -2.727000000
H     6.728000000    -1.190000000    -2.548000000
C     5.681000000    -2.763000000    -1.610000000
C     4.830000000    -3.813000000    -1.816000000
H     4.383000000    -4.256000000    -0.930000000
O    -1.215000000    -8.924000000     4.812000000
H    -0.859000000    -8.784000000     3.934000000
H    -0.514000000    -9.370000000     5.287000000
O     2.282000000    -9.330000000     2.702000000
H     1.545000000    -8.765000000     2.470000000
H     2.107000000   -10.152000000     2.244000000
O    -1.288000000    -4.731000000     2.603000000
H    -0.726000000    -4.895000000     1.846000000
H    -1.265000000    -3.781000000     2.718000000
O     4.812000000    -4.068000000     2.517000000
H     4.590000000    -4.897000000     2.941000000
H     4.165000000    -3.976000000     1.818000000
O    -0.162000000    -4.451000000     6.301000000
H    -0.783000000    -5.102000000     5.974000000
H     0.635000000    -4.602000000     5.793000000
O     6.651000000    -6.712000000     0.906000000
H     7.095000000    -6.256000000     1.621000000
H     7.360000000    -7.009000000     0.336000000
O     1.777000000    -3.712000000     4.301000000
H     2.007000000    -3.812000000     3.377000000
H     2.561000000    -3.989000000     4.774000000
O    -0.287000000    -7.835000000     2.063000000
H     0.219000000    -7.144000000     1.635000000
H    -1.177000000    -7.722000000     1.727000000
O     4.569000000    -8.423000000    -2.586000000
H     3.833000000    -8.312000000    -3.188000000
H     4.426000000    -7.762000000    -1.909000000
O     1.636000000    -8.100000000    -0.455000000
H     2.570000000    -8.081000000    -0.248000000
H     1.336000000    -7.205000000    -0.296000000
O     5.711000000    -2.161000000     4.135000000
H     5.403000000    -1.325000000     3.786000000
H     5.566000000    -2.785000000     3.424000000
O     4.146000000    -6.704000000    -0.077000000
H     3.625000000    -6.096000000     0.446000000
H     5.042000000    -6.584000000     0.237000000
O     7.512000000    -5.304000000    -1.765000000
H     6.757000000    -5.455000000    -1.196000000
H     7.831000000    -4.437000000    -1.515000000
O    -1.760000000    -6.325000000     4.962000000
H    -1.391000000    -7.204000000     4.875000000
H    -1.275000000    -5.798000000     4.328000000
O     2.766000000    -5.689000000     6.091000000
H     2.803000000    -6.248000000     5.315000000
H     2.301000000    -6.214000000     6.742000000
O    -0.977000000    -1.800000000     2.610000000
H    -0.575000000    -1.645000000     1.755000000
H    -0.293000000    -1.575000000     3.241000000
O     3.408000000    -6.469000000     3.344000000
H     3.090000000    -7.361000000     3.209000000
H     3.067000000    -5.977000000     2.597000000
O     1.000000000    -1.206000000     4.310000000
H     1.651000000    -0.888000000     4.936000000
H     1.154000000    -2.150000000     4.264000000
O    -0.473000000    -9.536000000    -2.275000000
H    -0.936000000    -8.818000000    -2.707000000
H     0.116000000    -9.104000000    -1.657000000
