201
-1238.68449
C    -1.691000000     0.634000000     4.214000000
H    -2.645000000     0.520000000     3.706000000
C    -0.786000000     1.685000000     3.862000000
C     0.375000000     1.914000000     4.608000000
H     1.059000000     2.729000000     4.386000000
C    -1.107000000     2.617000000     2.752000000
O    -2.403000000     3.111000000     2.707000000
H    -0.841000000     2.111000000     1.812000000
O    -0.317000000     3.773000000     2.812000000
C     0.370000000     4.133000000     1.699000000
C     1.711000000     3.774000000     1.639000000
H     2.169000000     3.336000000     2.522000000
C     2.328000000     3.866000000     0.401000000
O     3.596000000     3.348000000     0.239000000
C     1.655000000     4.408000000    -0.696000000
C     2.302000000     4.558000000    -2.008000000
H     1.951000000     5.423000000    -2.574000000
C     2.213000000     3.308000000    -2.809000000
C     1.050000000     3.097000000    -3.557000000
H     0.407000000     3.974000000    -3.582000000
H     3.363000000     4.690000000    -1.786000000
C     0.368000000     4.889000000    -0.529000000
H    -0.235000000     5.317000000    -1.326000000
C    -0.276000000     4.818000000     0.679000000
C    -1.751000000     5.177000000     0.841000000
H    -1.957000000     5.960000000     0.108000000
H    -1.920000000     5.488000000     1.875000000
C    -2.663000000     4.041000000     0.419000000
C    -3.143000000     3.782000000    -0.827000000
H    -2.924000000     4.498000000    -1.616000000
C    -2.987000000     3.184000000     1.505000000
C    -3.738000000     2.018000000     1.285000000
H    -3.985000000     1.272000000     2.035000000
C    -4.232000000     1.781000000     0.031000000
O    -4.964000000     0.611000000    -0.167000000
C    -4.299000000    -0.482000000    -0.793000000
C    -4.725000000    -1.803000000    -0.064000000
C    -4.406000000    -3.029000000    -0.664000000
H    -3.989000000    -2.909000000    -1.661000000
C    -5.238000000    -1.875000000     1.265000000
H    -5.442000000    -0.949000000     1.795000000
O    -4.551000000    -0.594000000    -2.239000000
H    -3.234000000    -0.325000000    -0.566000000
C    -3.968000000     2.658000000    -1.007000000
C    -4.442000000     2.277000000    -2.423000000
H    -4.519000000     3.198000000    -3.006000000
H    -5.463000000     1.932000000    -2.592000000
C    -3.426000000     1.421000000    -3.100000000
C    -2.380000000     1.979000000    -3.793000000
H    -2.267000000     3.043000000    -3.986000000
C    -3.606000000     0.017000000    -3.085000000
C    -2.649000000    -0.760000000    -3.676000000
H    -2.799000000    -1.829000000    -3.550000000
C    -1.581000000    -0.249000000    -4.349000000
O    -0.573000000    -1.085000000    -4.827000000
C     0.630000000    -1.114000000    -4.049000000
C     1.086000000    -2.541000000    -3.839000000
C     0.098000000    -3.526000000    -3.902000000
H    -0.886000000    -3.333000000    -4.321000000
C     2.362000000    -2.839000000    -3.424000000
H     3.106000000    -2.046000000    -3.446000000
O     1.633000000    -0.301000000    -4.744000000
H     0.457000000    -0.789000000    -3.013000000
C    -1.468000000     1.136000000    -4.450000000
C    -0.291000000     1.759000000    -5.227000000
H    -0.646000000     2.718000000    -5.608000000
H    -0.110000000     1.134000000    -6.104000000
C     0.965000000     1.963000000    -4.340000000
C     1.905000000     0.931000000    -4.210000000
C     2.881000000     1.065000000    -3.379000000
H     3.672000000     0.320000000    -3.368000000
C     3.117000000     2.226000000    -2.664000000
O     4.126000000     2.172000000    -1.712000000
C     3.670000000     2.088000000    -0.317000000
H     2.611000000     1.809000000    -0.214000000
C     4.598000000     1.237000000     0.469000000
C     4.835000000     1.483000000     1.829000000
H     4.366000000     2.313000000     2.351000000
C     5.140000000     0.086000000    -0.066000000
H     4.926000000    -0.100000000    -1.116000000
C     5.897000000    -0.779000000     0.733000000
O     6.594000000    -1.892000000     0.143000000
C     6.204000000    -0.458000000     2.059000000
H     6.744000000    -1.113000000     2.738000000
C     5.646000000     0.647000000     2.614000000
O     5.970000000     0.939000000     3.894000000
C     5.118000000     1.621000000     4.719000000
C     3.846000000     1.147000000     5.095000000
H     3.450000000     0.356000000     4.463000000
C     5.667000000     2.701000000     5.454000000
H     6.670000000     3.051000000     5.220000000
C     4.950000000     3.375000000     6.448000000
H     5.363000000     4.239000000     6.963000000
C     3.702000000     2.947000000     6.734000000
H     3.086000000     3.358000000     7.530000000
C     3.109000000     1.802000000     6.107000000
O     1.847000000     1.289000000     6.501000000
C     0.729000000     1.070000000     5.668000000
C    -0.157000000     0.053000000     6.073000000
H     0.047000000    -0.453000000     7.012000000
C    -1.350000000    -0.167000000     5.317000000
O    -2.275000000    -1.116000000     5.709000000
C    -3.602000000    -1.209000000     5.340000000
C    -3.982000000    -2.022000000     4.342000000
H    -3.196000000    -2.635000000     3.908000000
C    -4.596000000    -0.459000000     6.050000000
H    -4.237000000     0.220000000     6.819000000
C    -5.960000000    -0.574000000     5.749000000
H    -6.692000000     0.060000000     6.246000000
C    -6.294000000    -1.466000000     4.776000000
H    -7.325000000    -1.561000000     4.443000000
C    -5.350000000    -2.137000000     4.078000000
O    -5.837000000    -3.063000000     3.216000000
C    -5.439000000    -3.075000000     1.890000000
C    -4.910000000    -4.269000000     1.291000000
H    -4.934000000    -5.215000000     1.825000000
C    -4.431000000    -4.279000000     0.008000000
O    -3.835000000    -5.386000000    -0.530000000
C    -3.424000000    -5.474000000    -1.839000000
C    -2.097000000    -5.682000000    -2.263000000
H    -1.229000000    -5.896000000    -1.645000000
C    -4.411000000    -5.312000000    -2.845000000
H    -5.448000000    -5.394000000    -2.530000000
C    -4.051000000    -5.276000000    -4.146000000
H    -4.845000000    -5.102000000    -4.868000000
C    -2.675000000    -5.431000000    -4.576000000
H    -2.407000000    -5.388000000    -5.629000000
C    -1.775000000    -5.716000000    -3.624000000
O    -0.503000000    -5.803000000    -3.819000000
C     0.436000000    -4.826000000    -3.562000000
C     1.721000000    -5.120000000    -3.172000000
H     1.993000000    -6.167000000    -3.058000000
C     2.703000000    -4.167000000    -3.128000000
O     3.980000000    -4.624000000    -2.846000000
C     5.052000000    -3.749000000    -2.661000000
C     5.914000000    -3.503000000    -3.754000000
H     5.837000000    -3.842000000    -4.783000000
C     6.840000000    -2.590000000    -3.554000000
H     7.517000000    -2.404000000    -4.383000000
C     7.080000000    -2.049000000    -2.263000000
H     7.899000000    -1.372000000    -2.036000000
C     6.346000000    -2.351000000    -1.167000000
C     5.224000000    -3.176000000    -1.371000000
H     4.497000000    -3.515000000    -0.638000000
O     1.876000000    -9.791000000     0.456000000
H     1.464000000    -9.100000000    -0.062000000
H     2.738000000    -9.440000000     0.681000000
O    -1.044000000    -4.724000000     1.876000000
H    -0.385000000    -4.956000000     1.222000000
H    -1.225000000    -3.798000000     1.716000000
O     4.082000000    -4.336000000     2.713000000
H     4.854000000    -4.646000000     2.239000000
H     3.388000000    -4.319000000     2.054000000
O     4.546000000    -9.074000000     1.195000000
H     4.202000000    -8.323000000     0.710000000
H     5.477000000    -9.096000000     0.972000000
O    -2.530000000    -6.771000000     2.687000000
H    -3.374000000    -6.765000000     2.236000000
H    -2.031000000    -6.069000000     2.269000000
O     3.843000000    -5.176000000     5.516000000
H     3.308000000    -5.115000000     4.725000000
H     3.220000000    -5.069000000     6.235000000
O    -1.687000000    -9.607000000    -1.151000000
H    -0.983000000    -8.959000000    -1.158000000
H    -1.720000000    -9.915000000    -0.245000000
O     6.235000000    -5.853000000     1.238000000
H     7.016000000    -6.295000000     1.571000000
H     6.001000000    -6.342000000     0.449000000
O    -0.717000000    -8.722000000     3.012000000
H    -1.426000000    -8.095000000     2.867000000
H     0.030000000    -8.351000000     2.543000000
O    -1.649000000    -8.761000000    -4.030000000
H    -2.569000000    -8.945000000    -3.840000000
H    -1.489000000    -7.906000000    -3.631000000
O     1.454000000    -7.038000000     2.380000000
H     2.383000000    -7.166000000     2.573000000
H     1.445000000    -6.474000000     1.607000000
O     6.131000000    -6.667000000    -1.511000000
H     6.353000000    -5.801000000    -1.852000000
H     6.079000000    -7.224000000    -2.287000000
O     0.541000000    -4.907000000     3.955000000
H     1.088000000    -5.547000000     3.500000000
H    -0.288000000    -4.918000000     3.477000000
O     0.769000000    -7.852000000    -1.056000000
H     1.554000000    -7.885000000    -1.604000000
H     0.716000000    -6.941000000    -0.768000000
O     3.648000000    -2.253000000     4.598000000
H     4.361000000    -1.775000000     5.022000000
H     4.069000000    -3.023000000     4.217000000
O     3.688000000    -7.016000000    -0.461000000
H     3.243000000    -6.173000000    -0.371000000
H     4.512000000    -6.805000000    -0.902000000
O    -0.694000000    -3.436000000     6.362000000
H    -0.380000000    -4.018000000     5.670000000
H    -1.348000000    -2.885000000     5.932000000
O    -1.221000000    -1.854000000     2.143000000
H    -0.683000000    -1.211000000     1.680000000
H    -0.709000000    -2.079000000     2.919000000
O     0.894000000    -2.226000000     3.900000000
H     0.654000000    -3.097000000     4.216000000
H     1.846000000    -2.257000000     3.810000000
