201
-1236.95888
C    -0.930000000     2.667000000     4.537000000
H    -1.943000000     3.026000000     4.376000000
C     0.154000000     3.024000000     3.640000000
C     1.470000000     2.595000000     3.878000000
H     2.236000000     2.789000000     3.132000000
C    -0.158000000     3.607000000     2.236000000
O    -1.526000000     4.141000000     2.185000000
H    -0.106000000     2.763000000     1.533000000
O     0.863000000     4.653000000     1.852000000
C     1.334000000     4.494000000     0.550000000
C     2.465000000     3.736000000     0.333000000
H     3.084000000     3.429000000     1.172000000
C     2.855000000     3.373000000    -0.974000000
O     3.999000000     2.608000000    -1.121000000
C     2.002000000     3.736000000    -2.042000000
C     2.517000000     3.476000000    -3.451000000
H     2.014000000     4.150000000    -4.148000000
C     2.070000000     2.096000000    -3.860000000
C     0.812000000     1.927000000    -4.463000000
H     0.312000000     2.826000000    -4.815000000
H     3.574000000     3.714000000    -3.591000000
C     0.879000000     4.494000000    -1.814000000
H     0.291000000     4.756000000    -2.691000000
C     0.552000000     4.871000000    -0.554000000
C    -0.810000000     5.502000000    -0.297000000
H    -0.972000000     6.133000000    -1.173000000
H    -0.622000000     6.082000000     0.609000000
C    -2.001000000     4.578000000    -0.112000000
C    -2.767000000     4.219000000    -1.206000000
H    -2.475000000     4.617000000    -2.175000000
C    -2.256000000     3.933000000     1.112000000
C    -3.292000000     3.032000000     1.218000000
H    -3.644000000     2.656000000     2.175000000
C    -4.041000000     2.654000000     0.093000000
O    -4.901000000     1.615000000     0.205000000
C    -4.393000000     0.317000000    -0.059000000
C    -4.733000000    -0.727000000     1.028000000
C    -4.579000000    -2.068000000     0.803000000
H    -4.197000000    -2.325000000    -0.182000000
C    -4.941000000    -0.303000000     2.361000000
H    -4.930000000     0.733000000     2.690000000
O    -4.814000000    -0.172000000    -1.418000000
H    -3.297000000     0.292000000    -0.154000000
C    -3.696000000     3.190000000    -1.148000000
C    -4.372000000     2.698000000    -2.396000000
H    -4.287000000     3.539000000    -3.088000000
H    -5.453000000     2.552000000    -2.340000000
C    -3.580000000     1.435000000    -2.858000000
C    -2.765000000     1.458000000    -3.930000000
H    -2.620000000     2.409000000    -4.435000000
C    -3.963000000     0.093000000    -2.395000000
C    -3.322000000    -1.080000000    -2.841000000
H    -3.616000000    -2.045000000    -2.436000000
C    -2.352000000    -0.905000000    -3.782000000
O    -1.713000000    -2.087000000    -4.188000000
C    -0.380000000    -2.191000000    -3.691000000
C    -0.019000000    -3.583000000    -3.094000000
C    -1.017000000    -4.540000000    -2.800000000
H    -2.012000000    -4.398000000    -3.214000000
C     1.290000000    -3.890000000    -2.734000000
H     2.157000000    -3.237000000    -2.795000000
O     0.647000000    -1.693000000    -4.546000000
H    -0.352000000    -1.407000000    -2.919000000
C    -2.031000000     0.307000000    -4.395000000
C    -1.015000000     0.458000000    -5.455000000
H    -1.318000000     1.236000000    -6.159000000
H    -0.882000000    -0.459000000    -6.034000000
C     0.325000000     0.683000000    -4.783000000
C     1.131000000    -0.440000000    -4.496000000
C     2.360000000    -0.319000000    -3.878000000
H     2.813000000    -1.264000000    -3.590000000
C     2.807000000     0.946000000    -3.483000000
O     3.965000000     1.013000000    -2.831000000
C     3.844000000     1.149000000    -1.427000000
H     2.859000000     0.785000000    -1.101000000
C     4.776000000     0.208000000    -0.707000000
C     5.231000000     0.628000000     0.561000000
H     4.783000000     1.489000000     1.049000000
C     5.302000000    -0.949000000    -1.251000000
H     4.926000000    -1.294000000    -2.211000000
C     6.281000000    -1.638000000    -0.532000000
O     6.726000000    -2.857000000    -1.001000000
C     6.783000000    -1.199000000     0.699000000
H     7.474000000    -1.747000000     1.335000000
C     6.208000000    -0.121000000     1.289000000
O     6.578000000     0.144000000     2.574000000
C     5.916000000     1.141000000     3.286000000
C     4.808000000     0.934000000     4.051000000
H     4.538000000    -0.119000000     4.079000000
C     6.490000000     2.433000000     3.382000000
H     7.414000000     2.644000000     2.849000000
C     5.867000000     3.429000000     4.160000000
H     6.433000000     4.312000000     4.444000000
C     4.670000000     3.180000000     4.812000000
H     4.223000000     3.916000000     5.475000000
C     4.135000000     1.922000000     4.729000000
O     3.014000000     1.482000000     5.455000000
C     1.769000000     1.873000000     5.028000000
C     0.713000000     1.454000000     5.857000000
H     0.920000000     0.711000000     6.623000000
C    -0.591000000     1.855000000     5.631000000
O    -1.608000000     1.277000000     6.378000000
C    -2.933000000     1.285000000     6.161000000
C    -3.469000000     0.173000000     5.502000000
H    -2.845000000    -0.696000000     5.308000000
C    -3.729000000     2.294000000     6.595000000
H    -3.336000000     3.115000000     7.190000000
C    -5.089000000     2.216000000     6.423000000
H    -5.791000000     2.886000000     6.912000000
C    -5.625000000     1.255000000     5.601000000
H    -6.700000000     1.278000000     5.446000000
C    -4.822000000     0.154000000     5.291000000
O    -5.484000000    -0.919000000     4.716000000
C    -5.172000000    -1.255000000     3.408000000
C    -5.057000000    -2.589000000     3.099000000
H    -5.184000000    -3.391000000     3.822000000
C    -4.788000000    -2.995000000     1.814000000
O    -4.507000000    -4.358000000     1.594000000
C    -4.275000000    -4.931000000     0.373000000
C    -3.079000000    -5.526000000     0.028000000
H    -2.252000000    -5.310000000     0.700000000
C    -5.364000000    -4.957000000    -0.498000000
H    -6.347000000    -4.636000000    -0.165000000
C    -5.254000000    -5.482000000    -1.800000000
H    -6.140000000    -5.636000000    -2.411000000
C    -4.058000000    -6.066000000    -2.183000000
H    -3.881000000    -6.556000000    -3.137000000
C    -2.991000000    -5.987000000    -1.282000000
O    -1.845000000    -6.481000000    -1.698000000
C    -0.773000000    -5.699000000    -2.113000000
C     0.519000000    -6.020000000    -1.814000000
H     0.709000000    -6.994000000    -1.371000000
C     1.574000000    -5.188000000    -2.152000000
O     2.775000000    -5.582000000    -1.668000000
C     3.940000000    -4.978000000    -2.177000000
C     4.397000000    -5.357000000    -3.431000000
H     3.652000000    -5.875000000    -4.029000000
C     5.711000000    -4.985000000    -3.840000000
H     6.096000000    -5.319000000    -4.801000000
C     6.458000000    -4.190000000    -3.000000000
H     7.474000000    -3.900000000    -3.257000000
C     5.957000000    -3.733000000    -1.758000000
C     4.752000000    -4.250000000    -1.274000000
H     4.445000000    -4.027000000    -0.255000000
O     2.568000000    -6.389000000     4.490000000
H     2.248000000    -7.287000000     4.412000000
H     2.559000000    -6.053000000     3.593000000
O     1.061000000    -7.422000000     1.369000000
H     1.098000000    -6.490000000     1.582000000
H     1.915000000    -7.613000000     0.981000000
O     5.972000000    -4.438000000     2.116000000
H     5.102000000    -4.040000000     2.143000000
H     6.407000000    -4.118000000     2.906000000
O    -2.763000000    -6.917000000     3.487000000
H    -3.034000000    -6.444000000     4.274000000
H    -2.003000000    -6.433000000     3.166000000
O    -1.855000000    -3.441000000     5.170000000
H    -1.572000000    -3.042000000     4.348000000
H    -2.223000000    -4.287000000     4.912000000
O     8.562000000    -4.713000000     0.923000000
H     7.702000000    -4.512000000     1.293000000
H     8.705000000    -5.636000000     1.137000000
O     5.787000000    -7.277000000    -1.312000000
H     6.251000000    -6.478000000    -1.560000000
H     5.069000000    -6.975000000    -0.756000000
O     4.700000000    -7.884000000     5.209000000
H     5.217000000    -7.792000000     4.409000000
H     4.041000000    -7.193000000     5.149000000
O     1.921000000    -5.988000000     7.109000000
H     1.883000000    -5.924000000     6.154000000
H     2.424000000    -5.221000000     7.381000000
O     3.859000000    -3.076000000     4.720000000
H     3.383000000    -3.368000000     3.943000000
H     4.781000000    -3.199000000     4.497000000
O     7.424000000    -3.021000000     3.693000000
H     8.363000000    -3.102000000     3.526000000
H     7.335000000    -2.193000000     4.165000000
O     5.146000000    -8.748000000     2.556000000
H     5.322000000    -9.287000000     1.785000000
H     4.725000000    -7.962000000     2.208000000
O     3.436000000    -3.792000000     7.389000000
H     3.402000000    -2.926000000     7.795000000
H     3.845000000    -3.642000000     6.537000000
O     2.352000000    -1.211000000     6.909000000
H     1.437000000    -1.490000000     6.876000000
H     2.673000000    -1.336000000     6.016000000
O    -1.173000000    -8.703000000    -0.041000000
H    -0.507000000    -8.491000000     0.613000000
H    -1.289000000    -7.893000000    -0.536000000
O    -0.735000000    -5.045000000     2.466000000
H    -0.934000000    -4.109000000     2.435000000
H     0.198000000    -5.099000000     2.260000000
O     6.057000000    -4.614000000     5.988000000
H     5.687000000    -5.446000000     6.286000000
H     6.946000000    -4.608000000     6.342000000
O     4.246000000    -6.525000000     1.374000000
H     3.477000000    -5.991000000     1.572000000
H     4.978000000    -5.908000000     1.399000000
O    -1.186000000    -2.482000000     2.692000000
H    -0.533000000    -2.126000000     2.089000000
H    -2.024000000    -2.321000000     2.259000000
