201
-1247.71222
C    -1.073000000     1.520000000     5.248000000
H    -2.129000000     1.714000000     5.079000000
C    -0.106000000     2.128000000     4.482000000
C     1.288000000     1.879000000     4.807000000
H     2.109000000     2.329000000     4.255000000
C    -0.384000000     2.876000000     3.225000000
O    -1.669000000     3.626000000     3.247000000
H    -0.430000000     2.077000000     2.470000000
O     0.694000000     3.808000000     2.978000000
C     1.237000000     3.986000000     1.721000000
C     2.391000000     3.230000000     1.385000000
H     2.795000000     2.651000000     2.211000000
C     2.962000000     3.424000000     0.139000000
O     4.091000000     2.711000000    -0.171000000
C     2.250000000     4.180000000    -0.857000000
C     2.783000000     4.249000000    -2.232000000
H     2.437000000     5.243000000    -2.523000000
C     2.385000000     2.985000000    -3.041000000
C     1.200000000     2.999000000    -3.759000000
H     0.625000000     3.922000000    -3.734000000
H     3.855000000     4.400000000    -2.092000000
C     1.068000000     4.760000000    -0.552000000
H     0.572000000     5.380000000    -1.294000000
C     0.552000000     4.706000000     0.779000000
C    -0.755000000     5.450000000     1.123000000
H    -0.833000000     6.266000000     0.401000000
H    -0.702000000     5.968000000     2.083000000
C    -1.922000000     4.532000000     0.995000000
C    -2.602000000     4.401000000    -0.241000000
H    -2.342000000     5.040000000    -1.082000000
C    -2.373000000     3.802000000     2.094000000
C    -3.377000000     2.876000000     1.907000000
H    -3.640000000     2.266000000     2.767000000
C    -4.049000000     2.681000000     0.721000000
O    -4.799000000     1.552000000     0.618000000
C    -4.243000000     0.532000000    -0.217000000
C    -4.514000000    -0.846000000     0.365000000
C    -4.952000000    -1.910000000    -0.344000000
H    -5.111000000    -1.714000000    -1.401000000
C    -4.244000000    -1.066000000     1.708000000
H    -3.708000000    -0.313000000     2.282000000
O    -4.793000000     0.665000000    -1.535000000
H    -3.166000000     0.752000000    -0.245000000
C    -3.625000000     3.438000000    -0.409000000
C    -4.279000000     3.317000000    -1.798000000
H    -4.277000000     4.275000000    -2.321000000
H    -5.282000000     2.906000000    -1.664000000
C    -3.548000000     2.269000000    -2.605000000
C    -2.381000000     2.569000000    -3.343000000
H    -2.068000000     3.589000000    -3.546000000
C    -3.981000000     1.003000000    -2.552000000
C    -3.296000000    -0.015000000    -3.296000000
H    -3.794000000    -0.981000000    -3.272000000
C    -2.107000000     0.247000000    -3.969000000
O    -1.448000000    -0.783000000    -4.636000000
C    -0.149000000    -1.114000000    -4.075000000
C     0.066000000    -2.624000000    -3.919000000
C    -1.035000000    -3.454000000    -3.933000000
H    -2.044000000    -3.063000000    -4.042000000
C     1.335000000    -3.231000000    -3.816000000
H     2.235000000    -2.624000000    -3.886000000
O     0.976000000    -0.591000000    -4.800000000
H    -0.158000000    -0.630000000    -3.086000000
C    -1.723000000     1.561000000    -4.038000000
C    -0.596000000     1.913000000    -5.010000000
H    -0.702000000     2.922000000    -5.413000000
H    -0.681000000     1.283000000    -5.898000000
C     0.702000000     1.849000000    -4.401000000
C     1.441000000     0.630000000    -4.321000000
C     2.594000000     0.630000000    -3.590000000
H     3.170000000    -0.286000000    -3.479000000
C     3.086000000     1.752000000    -2.911000000
O     4.205000000     1.546000000    -2.122000000
C     3.910000000     1.405000000    -0.746000000
H     2.842000000     1.143000000    -0.722000000
C     4.628000000     0.239000000    -0.131000000
C     4.838000000     0.151000000     1.246000000
H     4.399000000     0.853000000     1.950000000
C     5.046000000    -0.795000000    -0.955000000
H     4.773000000    -0.856000000    -2.005000000
C     5.742000000    -1.889000000    -0.358000000
O     6.171000000    -2.887000000    -1.148000000
C     5.986000000    -1.945000000     0.983000000
H     6.552000000    -2.788000000     1.371000000
C     5.433000000    -0.974000000     1.788000000
O     5.450000000    -1.135000000     3.147000000
C     5.331000000    -0.149000000     4.074000000
C     4.188000000    -0.020000000     4.820000000
H     3.422000000    -0.791000000     4.807000000
C     6.454000000     0.580000000     4.325000000
H     7.367000000     0.491000000     3.741000000
C     6.359000000     1.530000000     5.386000000
H     7.236000000     2.048000000     5.767000000
C     5.127000000     1.758000000     6.030000000
H     5.110000000     2.446000000     6.871000000
C     4.010000000     0.968000000     5.796000000
O     2.825000000     1.053000000     6.496000000
C     1.567000000     1.147000000     5.952000000
C     0.550000000     0.505000000     6.693000000
H     0.835000000    -0.133000000     7.526000000
C    -0.767000000     0.661000000     6.303000000
O    -1.778000000     0.021000000     6.965000000
C    -2.956000000    -0.429000000     6.332000000
C    -2.963000000    -1.198000000     5.250000000
H    -2.036000000    -1.596000000     4.844000000
C    -4.151000000     0.047000000     6.812000000
H    -4.141000000     0.732000000     7.657000000
C    -5.396000000    -0.294000000     6.282000000
H    -6.298000000     0.083000000     6.756000000
C    -5.371000000    -1.136000000     5.160000000
H    -6.268000000    -1.446000000     4.630000000
C    -4.149000000    -1.605000000     4.669000000
O    -4.029000000    -2.488000000     3.633000000
C    -4.464000000    -2.254000000     2.365000000
C    -4.938000000    -3.350000000     1.686000000
H    -5.065000000    -4.333000000     2.132000000
C    -5.084000000    -3.157000000     0.302000000
O    -5.216000000    -4.339000000    -0.430000000
C    -4.852000000    -4.512000000    -1.764000000
C    -3.519000000    -4.875000000    -2.055000000
H    -2.670000000    -4.982000000    -1.385000000
C    -5.742000000    -4.277000000    -2.823000000
H    -6.758000000    -3.958000000    -2.605000000
C    -5.337000000    -4.472000000    -4.168000000
H    -6.004000000    -4.244000000    -4.995000000
C    -4.102000000    -5.027000000    -4.421000000
H    -3.874000000    -5.366000000    -5.428000000
C    -3.226000000    -5.213000000    -3.390000000
O    -1.952000000    -5.676000000    -3.769000000
C    -0.826000000    -4.838000000    -3.811000000
C     0.441000000    -5.433000000    -3.723000000
H     0.605000000    -6.477000000    -3.467000000
C     1.526000000    -4.586000000    -3.693000000
O     2.748000000    -5.170000000    -3.459000000
C     3.933000000    -4.449000000    -3.453000000
C     4.566000000    -4.175000000    -4.622000000
H     4.086000000    -4.656000000    -5.470000000
C     5.684000000    -3.388000000    -4.686000000
H     6.165000000    -3.213000000    -5.645000000
C     6.369000000    -3.037000000    -3.541000000
H     7.303000000    -2.491000000    -3.438000000
C     5.687000000    -3.315000000    -2.338000000
C     4.484000000    -3.970000000    -2.275000000
H     4.117000000    -4.131000000    -1.264000000
O     7.295000000    -5.858000000     1.122000000
H     7.681000000    -5.067000000     0.747000000
H     6.353000000    -5.685000000     1.130000000
O    -2.097000000    -6.253000000     1.347000000
H    -1.362000000    -5.944000000     0.817000000
H    -2.496000000    -6.947000000     0.822000000
O     0.333000000   -10.119000000     1.975000000
H     0.330000000    -9.354000000     2.549000000
H     1.172000000   -10.071000000     1.517000000
O     4.671000000    -5.309000000     1.247000000
H     3.894000000    -4.763000000     1.125000000
H     4.375000000    -6.024000000     1.811000000
O     3.554000000    -9.325000000     2.162000000
H     3.298000000    -8.880000000     2.970000000
H     4.333000000    -8.854000000     1.866000000
O     1.018000000    -9.314000000     4.853000000
H     0.265000000    -9.091000000     5.400000000
H     0.996000000    -8.674000000     4.142000000
O     0.062000000   -10.510000000    -2.113000000
H     0.321000000   -10.087000000    -2.932000000
H     0.354000000    -9.907000000    -1.430000000
O    -3.635000000    -6.029000000     3.684000000
H    -4.350000000    -6.241000000     3.084000000
H    -2.852000000    -6.035000000     3.135000000
O     1.132000000    -7.839000000    -0.894000000
H     2.073000000    -7.676000000    -0.962000000
H     0.776000000    -7.032000000    -0.521000000
O     2.374000000    -5.932000000     6.744000000
H     1.519000000    -5.677000000     6.398000000
H     2.172000000    -6.452000000     7.522000000
O     5.280000000    -4.548000000     5.267000000
H     4.578000000    -4.077000000     4.817000000
H     5.955000000    -4.667000000     4.598000000
O     3.788000000    -7.660000000    -1.590000000
H     4.330000000    -7.542000000    -0.810000000
H     4.405000000    -7.605000000    -2.320000000
O     0.028000000    -4.713000000     5.757000000
H    -0.496000000    -4.092000000     6.263000000
H    -0.170000000    -4.506000000     4.844000000
O     0.494000000    -1.761000000     4.315000000
H    -0.123000000    -2.325000000     3.848000000
H     0.604000000    -1.001000000     3.744000000
O     0.357000000    -7.394000000     3.139000000
H    -0.539000000    -7.431000000     2.804000000
H     0.792000000    -6.744000000     2.588000000
O     2.840000000    -3.707000000     4.473000000
H     2.447000000    -3.813000000     3.607000000
H     2.129000000    -3.370000000     5.019000000
O     3.174000000    -6.694000000     3.527000000
H     3.063000000    -6.516000000     4.461000000
H     2.437000000    -6.248000000     3.110000000
O    -1.269000000    -3.764000000     3.202000000
H    -1.146000000    -4.498000000     2.601000000
H    -2.096000000    -3.367000000     2.929000000
O     1.977000000    -8.600000000    -3.810000000
H     2.492000000    -8.284000000    -4.552000000
H     2.334000000    -8.133000000    -3.055000000
