201
-1262.27686
C    -0.464000000     3.020000000     4.406000000
H    -1.489000000     2.900000000     4.065000000
C     0.537000000     3.499000000     3.521000000
C     1.806000000     3.547000000     4.065000000
H     2.524000000     3.938000000     3.350000000
C     0.196000000     3.964000000     2.008000000
O    -1.037000000     4.599000000     1.893000000
H     0.201000000     3.065000000     1.374000000
O     1.160000000     4.867000000     1.452000000
C     1.575000000     4.681000000     0.120000000
C     2.775000000     4.011000000    -0.048000000
H     3.422000000     3.873000000     0.815000000
C     3.253000000     3.529000000    -1.300000000
O     4.263000000     2.591000000    -1.209000000
C     2.389000000     3.709000000    -2.414000000
C     2.575000000     3.150000000    -3.797000000
H     2.252000000     3.826000000    -4.591000000
C     1.868000000     1.761000000    -3.949000000
C     0.715000000     1.603000000    -4.661000000
H     0.198000000     2.465000000    -5.075000000
H     3.645000000     3.008000000    -3.960000000
C     1.185000000     4.431000000    -2.208000000
H     0.526000000     4.501000000    -3.069000000
C     0.742000000     4.870000000    -0.923000000
C    -0.634000000     5.546000000    -0.771000000
H    -1.020000000     5.952000000    -1.708000000
H    -0.686000000     6.375000000    -0.062000000
C    -1.730000000     4.561000000    -0.378000000
C    -2.470000000     4.026000000    -1.386000000
H    -2.311000000     4.468000000    -2.367000000
C    -1.883000000     4.159000000     0.939000000
C    -2.857000000     3.217000000     1.250000000
H    -2.940000000     2.919000000     2.292000000
C    -3.547000000     2.613000000     0.198000000
O    -4.264000000     1.561000000     0.617000000
C    -3.975000000     0.330000000     0.018000000
C    -4.063000000    -0.733000000     1.068000000
C    -4.595000000    -1.969000000     0.710000000
H    -4.870000000    -2.146000000    -0.327000000
C    -3.572000000    -0.550000000     2.406000000
H    -3.021000000     0.371000000     2.576000000
O    -4.801000000     0.059000000    -1.130000000
H    -2.946000000     0.384000000    -0.366000000
C    -3.452000000     3.091000000    -1.130000000
C    -4.340000000     2.679000000    -2.305000000
H    -4.141000000     3.488000000    -3.012000000
H    -5.351000000     2.642000000    -1.896000000
C    -3.782000000     1.419000000    -2.900000000
C    -2.900000000     1.400000000    -4.004000000
H    -2.494000000     2.348000000    -4.349000000
C    -4.070000000     0.187000000    -2.307000000
C    -3.654000000    -1.019000000    -2.902000000
H    -3.867000000    -1.966000000    -2.413000000
C    -2.700000000    -1.035000000    -3.869000000
O    -2.084000000    -2.237000000    -4.150000000
C    -0.816000000    -2.446000000    -3.428000000
C    -0.591000000    -3.870000000    -3.037000000
C    -1.617000000    -4.661000000    -2.676000000
H    -2.662000000    -4.429000000    -2.866000000
C     0.669000000    -4.342000000    -2.760000000
H     1.511000000    -3.684000000    -2.957000000
O     0.265000000    -2.120000000    -4.345000000
H    -0.799000000    -1.751000000    -2.575000000
C    -2.323000000     0.182000000    -4.505000000
C    -1.176000000     0.155000000    -5.537000000
H    -1.271000000     0.955000000    -6.274000000
H    -1.293000000    -0.773000000    -6.100000000
C     0.204000000     0.303000000    -4.886000000
C     0.823000000    -0.795000000    -4.257000000
C     2.023000000    -0.593000000    -3.580000000
H     2.470000000    -1.398000000    -3.003000000
C     2.580000000     0.643000000    -3.429000000
O     3.768000000     0.850000000    -2.729000000
C     3.879000000     1.238000000    -1.392000000
H     2.904000000     1.028000000    -0.927000000
C     4.815000000     0.337000000    -0.579000000
C     5.181000000     0.719000000     0.706000000
H     4.919000000     1.731000000     1.007000000
C     5.106000000    -0.961000000    -1.019000000
H     4.945000000    -1.155000000    -2.076000000
C     5.605000000    -1.916000000    -0.143000000
O     5.714000000    -3.239000000    -0.446000000
C     5.766000000    -1.614000000     1.201000000
H     5.970000000    -2.417000000     1.905000000
C     5.649000000    -0.265000000     1.640000000
O     5.664000000     0.033000000     2.966000000
C     5.589000000     1.333000000     3.482000000
C     4.477000000     1.660000000     4.230000000
H     3.601000000     1.016000000     4.245000000
C     6.638000000     2.245000000     3.273000000
H     7.501000000     1.975000000     2.670000000
C     6.656000000     3.414000000     4.057000000
H     7.522000000     4.066000000     3.978000000
C     5.529000000     3.760000000     4.717000000
H     5.538000000     4.730000000     5.207000000
C     4.432000000     2.878000000     4.871000000
O     3.393000000     3.225000000     5.807000000
C     2.085000000     3.133000000     5.380000000
C     1.061000000     2.794000000     6.207000000
H     1.257000000     2.606000000     7.259000000
C    -0.211000000     2.625000000     5.737000000
O    -1.190000000     2.367000000     6.670000000
C    -2.319000000     1.592000000     6.456000000
C    -2.091000000     0.460000000     5.646000000
H    -1.113000000     0.169000000     5.270000000
C    -3.551000000     1.924000000     6.929000000
H    -3.576000000     2.853000000     7.494000000
C    -4.632000000     1.106000000     6.621000000
H    -5.622000000     1.335000000     7.008000000
C    -4.441000000    -0.021000000     5.782000000
H    -5.221000000    -0.750000000     5.580000000
C    -3.175000000    -0.316000000     5.309000000
O    -2.929000000    -1.436000000     4.509000000
C    -3.597000000    -1.615000000     3.297000000
C    -4.056000000    -2.853000000     2.854000000
H    -4.103000000    -3.685000000     3.553000000
C    -4.630000000    -3.005000000     1.589000000
O    -5.410000000    -4.087000000     1.276000000
C    -5.187000000    -4.832000000     0.176000000
C    -3.905000000    -5.349000000    -0.100000000
H    -3.051000000    -5.108000000     0.528000000
C    -6.236000000    -5.134000000    -0.707000000
H    -7.275000000    -4.845000000    -0.574000000
C    -6.005000000    -5.927000000    -1.803000000
H    -6.816000000    -6.025000000    -2.521000000
C    -4.699000000    -6.330000000    -2.149000000
H    -4.548000000    -6.791000000    -3.122000000
C    -3.650000000    -5.965000000    -1.302000000
O    -2.463000000    -6.470000000    -1.492000000
C    -1.382000000    -5.817000000    -1.959000000
C    -0.110000000    -6.289000000    -1.659000000
H     0.038000000    -7.214000000    -1.109000000
C     0.951000000    -5.567000000    -2.133000000
O     2.176000000    -6.098000000    -1.833000000
C     3.352000000    -5.356000000    -2.170000000
C     3.794000000    -5.256000000    -3.530000000
H     3.309000000    -5.844000000    -4.305000000
C     4.878000000    -4.439000000    -3.820000000
H     5.190000000    -4.289000000    -4.850000000
C     5.466000000    -3.620000000    -2.809000000
H     6.327000000    -3.034000000    -3.121000000
C     5.067000000    -3.795000000    -1.464000000
C     3.991000000    -4.650000000    -1.169000000
H     3.712000000    -4.759000000    -0.125000000
O    -1.361000000    -6.146000000     2.114000000
H    -0.578000000    -5.707000000     1.783000000
H    -1.345000000    -7.008000000     1.700000000
O    -2.012000000    -8.572000000     0.851000000
H    -2.961000000    -8.692000000     0.827000000
H    -1.667000000    -9.278000000     0.305000000
O     7.157000000    -5.980000000     4.179000000
H     6.341000000    -5.490000000     4.280000000
H     6.903000000    -6.895000000     4.294000000
O     1.983000000    -7.495000000     1.658000000
H     1.761000000    -7.805000000     2.535000000
H     1.593000000    -6.622000000     1.606000000
O     6.008000000    -3.008000000     6.308000000
H     5.213000000    -3.090000000     5.782000000
H     5.931000000    -2.150000000     6.727000000
O     3.108000000    -8.982000000    -0.551000000
H     2.700000000    -8.774000000    -1.391000000
H     2.573000000    -8.523000000     0.096000000
O     5.155000000    -8.409000000     2.251000000
H     4.578000000    -8.585000000     1.507000000
H     5.703000000    -9.191000000     2.319000000
O     1.122000000    -8.206000000     4.136000000
H     1.295000000    -7.388000000     4.603000000
H     0.355000000    -8.574000000     4.574000000
O     5.587000000    -7.744000000    -1.847000000
H     4.935000000    -7.940000000    -1.175000000
H     5.139000000    -7.923000000    -2.675000000
O    -0.065000000    -2.324000000     5.079000000
H    -0.823000000    -2.730000000     4.660000000
H    -0.194000000    -2.484000000     6.014000000
O     3.343000000    -2.965000000     5.751000000
H     2.962000000    -3.375000000     4.975000000
H     2.647000000    -2.400000000     6.089000000
O    -4.139000000    -6.556000000     3.183000000
H    -3.699000000    -6.818000000     3.992000000
H    -3.442000000    -6.534000000     2.528000000
O     2.898000000    -5.817000000     7.108000000
H     3.827000000    -5.591000000     7.154000000
H     2.554000000    -5.277000000     6.397000000
O     3.028000000    -8.261000000     5.886000000
H     2.938000000    -7.461000000     6.404000000
H     3.038000000    -7.959000000     4.978000000
O     1.687000000    -0.186000000     7.022000000
H     1.459000000    -0.022000000     6.106000000
H     0.957000000    -0.705000000     7.361000000
O     1.226000000    -0.066000000     4.307000000
H     1.394000000    -0.047000000     3.365000000
H     0.654000000    -0.824000000     4.432000000
O     1.229000000    -5.404000000     4.831000000
H     1.599000000    -5.049000000     4.023000000
H     0.339000000    -5.055000000     4.862000000
O     4.646000000    -5.290000000     3.306000000
H     3.867000000    -4.779000000     3.087000000
H     4.502000000    -6.138000000     2.886000000
O    -1.426000000    -4.816000000     4.575000000
H    -1.315000000    -5.334000000     3.777000000
H    -1.972000000    -5.362000000     5.140000000
