201
-1250.67416
C    -2.853000000    -1.457000000    -4.599000000
H    -3.318000000    -0.630000000    -5.130000000
C    -3.016000000    -1.606000000    -3.251000000
C    -2.490000000    -2.756000000    -2.614000000
H    -2.617000000    -2.815000000    -1.537000000
C    -3.477000000    -0.466000000    -2.304000000
O    -3.917000000     0.625000000    -3.144000000
H    -2.696000000    -0.101000000    -1.621000000
O    -4.543000000    -0.929000000    -1.491000000
C    -4.650000000    -0.412000000    -0.244000000
C    -4.264000000    -1.227000000     0.828000000
H    -4.071000000    -2.292000000     0.722000000
C    -4.039000000    -0.769000000     2.128000000
O    -3.554000000    -1.655000000     3.056000000
C    -4.228000000     0.579000000     2.408000000
C    -3.855000000     1.128000000     3.814000000
H    -4.351000000     2.084000000     3.993000000
C    -2.426000000     1.382000000     3.940000000
C    -1.925000000     2.630000000     3.612000000
H    -2.549000000     3.386000000     3.143000000
H    -3.986000000     0.432000000     4.645000000
C    -4.581000000     1.423000000     1.389000000
H    -4.639000000     2.480000000     1.635000000
C    -4.774000000     0.962000000     0.022000000
C    -5.163000000     1.981000000    -1.031000000
H    -5.781000000     2.785000000    -0.626000000
H    -5.821000000     1.521000000    -1.771000000
C    -3.930000000     2.507000000    -1.761000000
C    -3.292000000     3.632000000    -1.246000000
H    -3.677000000     4.208000000    -0.409000000
C    -3.461000000     1.873000000    -2.878000000
C    -2.298000000     2.236000000    -3.543000000
H    -1.869000000     1.578000000    -4.295000000
C    -1.639000000     3.315000000    -2.969000000
O    -0.348000000     3.608000000    -3.455000000
C     0.696000000     3.067000000    -2.670000000
C     1.613000000     2.243000000    -3.543000000
C     2.658000000     1.581000000    -2.960000000
H     2.823000000     1.624000000    -1.887000000
C     1.394000000     1.988000000    -4.886000000
H     0.577000000     2.510000000    -5.377000000
O     1.419000000     4.154000000    -1.981000000
H     0.223000000     2.502000000    -1.853000000
C    -2.058000000     4.009000000    -1.799000000
C    -1.328000000     5.250000000    -1.251000000
H    -2.085000000     5.826000000    -0.714000000
H    -0.955000000     5.874000000    -2.066000000
C    -0.286000000     4.775000000    -0.252000000
C    -0.569000000     4.769000000     1.118000000
H    -1.562000000     5.103000000     1.410000000
C     1.009000000     4.355000000    -0.704000000
C     1.860000000     3.839000000     0.270000000
H     2.830000000     3.385000000     0.082000000
C     1.600000000     3.903000000     1.593000000
O     2.501000000     3.197000000     2.351000000
C     2.250000000     1.941000000     3.009000000
C     3.606000000     1.152000000     3.236000000
C     4.534000000     1.201000000     2.178000000
H     4.470000000     2.034000000     1.482000000
C     3.878000000     0.294000000     4.315000000
H     3.029000000     0.158000000     4.980000000
O     1.696000000     2.307000000     4.347000000
H     1.626000000     1.271000000     2.400000000
C     0.397000000     4.435000000     2.083000000
C    -0.085000000     4.366000000     3.504000000
H    -0.919000000     5.051000000     3.672000000
H     0.736000000     4.687000000     4.148000000
C    -0.602000000     2.991000000     3.825000000
C     0.327000000     2.066000000     4.368000000
C    -0.174000000     0.794000000     4.601000000
H     0.575000000     0.130000000     5.024000000
C    -1.510000000     0.428000000     4.438000000
O    -1.946000000    -0.823000000     4.640000000
C    -2.117000000    -1.618000000     3.436000000
H    -1.514000000    -1.060000000     2.705000000
C    -1.438000000    -2.968000000     3.528000000
C    -1.853000000    -4.035000000     2.702000000
H    -2.726000000    -4.010000000     2.055000000
C    -0.216000000    -3.142000000     4.223000000
H     0.182000000    -2.278000000     4.748000000
C     0.601000000    -4.306000000     4.039000000
O     1.771000000    -4.467000000     4.720000000
C     0.137000000    -5.359000000     3.248000000
H     0.712000000    -6.273000000     3.121000000
C    -1.068000000    -5.172000000     2.552000000
O    -1.466000000    -6.256000000     1.833000000
C    -2.153000000    -6.065000000     0.657000000
C    -1.446000000    -5.675000000    -0.514000000
H    -0.370000000    -5.515000000    -0.503000000
C    -3.511000000    -6.260000000     0.675000000
H    -3.972000000    -6.644000000     1.581000000
C    -4.217000000    -5.943000000    -0.484000000
H    -5.296000000    -6.046000000    -0.566000000
C    -3.515000000    -5.468000000    -1.604000000
H    -4.052000000    -5.009000000    -2.430000000
C    -2.148000000    -5.453000000    -1.689000000
O    -1.434000000    -4.899000000    -2.739000000
C    -1.930000000    -3.793000000    -3.364000000
C    -1.762000000    -3.596000000    -4.730000000
H    -1.182000000    -4.288000000    -5.334000000
C    -2.211000000    -2.470000000    -5.331000000
O    -1.920000000    -2.253000000    -6.625000000
C    -1.352000000    -1.096000000    -7.019000000
C    -0.076000000    -0.782000000    -6.672000000
H     0.383000000    -1.519000000    -6.017000000
C    -2.073000000    -0.257000000    -7.930000000
H    -3.117000000    -0.484000000    -8.128000000
C    -1.552000000     0.970000000    -8.347000000
H    -2.120000000     1.718000000    -8.893000000
C    -0.210000000     1.234000000    -7.982000000
H     0.245000000     2.141000000    -8.373000000
C     0.492000000     0.392000000    -7.129000000
O     1.783000000     0.807000000    -6.783000000
C     2.166000000     1.078000000    -5.571000000
C     3.238000000     0.412000000    -4.985000000
H     3.848000000    -0.281000000    -5.559000000
C     3.519000000     0.621000000    -3.612000000
O     4.485000000    -0.007000000    -2.952000000
C     5.349000000     0.758000000    -2.186000000
C     5.444000000     0.522000000    -0.817000000
H     4.898000000    -0.306000000    -0.373000000
C     6.182000000     1.680000000    -2.819000000
H     6.135000000     1.646000000    -3.904000000
C     7.265000000     2.302000000    -2.085000000
H     8.036000000     2.935000000    -2.516000000
C     7.382000000     1.954000000    -0.699000000
H     8.187000000     2.351000000    -0.087000000
C     6.486000000     1.090000000    -0.064000000
O     6.705000000     0.652000000     1.237000000
C     5.721000000     0.511000000     2.193000000
C     6.020000000    -0.299000000     3.287000000
H     6.978000000    -0.802000000     3.393000000
C     5.072000000    -0.492000000     4.349000000
O     5.294000000    -1.345000000     5.373000000
C     4.220000000    -2.053000000     5.857000000
C     3.720000000    -1.663000000     7.085000000
H     4.014000000    -0.791000000     7.664000000
C     2.483000000    -2.274000000     7.584000000
H     2.016000000    -1.910000000     8.496000000
C     1.902000000    -3.278000000     6.804000000
H     0.919000000    -3.700000000     7.000000000
C     2.444000000    -3.623000000     5.550000000
C     3.544000000    -3.017000000     5.079000000
H     3.856000000    -3.153000000     4.047000000
O     7.321000000    -1.657000000    -2.724000000
H     7.730000000    -1.877000000    -1.886000000
H     6.463000000    -1.305000000    -2.487000000
O     6.151000000    -3.462000000     0.732000000
H     6.573000000    -2.681000000     0.375000000
H     5.240000000    -3.393000000     0.448000000
O     3.205000000    -7.005000000     2.138000000
H     2.462000000    -7.591000000     1.994000000
H     2.967000000    -6.199000000     1.682000000
O     8.455000000    -1.750000000    -0.033000000
H     8.563000000    -0.925000000     0.440000000
H     9.226000000    -2.266000000     0.205000000
O     8.239000000    -5.115000000    -0.919000000
H     9.080000000    -4.789000000    -0.598000000
H     7.665000000    -4.350000000    -0.909000000
O     6.865000000    -0.782000000    -5.315000000
H     7.560000000    -1.150000000    -5.861000000
H     7.140000000    -0.969000000    -4.417000000
O     5.498000000    -8.344000000    -3.970000000
H     5.876000000    -8.581000000    -3.123000000
H     5.759000000    -7.432000000    -4.102000000
O     1.026000000    -8.117000000    -2.075000000
H     1.775000000    -8.533000000    -1.647000000
H     1.294000000    -7.206000000    -2.193000000
O     2.571000000    -5.239000000     0.319000000
H     2.269000000    -5.436000000    -0.568000000
H     3.145000000    -4.480000000     0.212000000
O     7.823000000    -4.034000000     3.088000000
H     7.531000000    -3.884000000     2.189000000
H     7.592000000    -4.946000000     3.266000000
O     5.220000000    -7.085000000    -1.034000000
H     5.586000000    -6.555000000    -1.741000000
H     4.426000000    -6.619000000    -0.771000000
O     1.591000000    -5.484000000    -2.273000000
H     2.210000000    -4.765000000    -2.404000000
H     0.759000000    -5.147000000    -2.604000000
O     3.037000000    -7.647000000    -5.219000000
H     3.867000000    -8.049000000    -4.963000000
H     2.381000000    -8.322000000    -5.045000000
O     2.709000000    -2.770000000    -5.241000000
H     2.572000000    -2.728000000    -4.294000000
H     3.642000000    -2.587000000    -5.355000000
O     7.752000000    -6.993000000    -3.278000000
H     7.980000000    -7.604000000    -2.577000000
H     7.712000000    -6.139000000    -2.847000000
O     1.760000000    -5.161000000    -6.041000000
H     2.143000000    -5.844000000    -5.491000000
H     2.142000000    -4.347000000    -5.714000000
O     3.048000000    -8.923000000    -0.455000000
H     3.382000000    -9.818000000    -0.501000000
H     3.829000000    -8.381000000    -0.336000000
O     5.336000000    -5.061000000    -2.661000000
H     4.747000000    -4.355000000    -2.392000000
H     5.652000000    -4.794000000    -3.524000000
O     6.672000000    -4.047000000    -4.912000000
H     6.805000000    -3.766000000    -5.817000000
H     7.402000000    -3.657000000    -4.431000000
