201
-1243.70400
C    -0.678000000     1.561000000     5.282000000
H    -1.709000000     1.808000000     5.040000000
C     0.305000000     2.174000000     4.616000000
C     1.656000000     1.869000000     4.956000000
H     2.480000000     2.357000000     4.441000000
C     0.044000000     3.019000000     3.333000000
O    -1.155000000     3.795000000     3.323000000
H    -0.011000000     2.318000000     2.487000000
O     1.110000000     3.851000000     2.938000000
C     1.400000000     3.936000000     1.586000000
C     2.551000000     3.281000000     1.164000000
H     3.317000000     2.966000000     1.868000000
C     2.947000000     3.321000000    -0.162000000
O     4.024000000     2.593000000    -0.645000000
C     2.186000000     4.030000000    -1.098000000
C     2.475000000     4.075000000    -2.585000000
H     2.069000000     4.971000000    -3.059000000
C     1.881000000     2.904000000    -3.350000000
C     0.664000000     2.984000000    -4.035000000
H     0.115000000     3.912000000    -3.903000000
H     3.560000000     4.061000000    -2.703000000
C     1.081000000     4.720000000    -0.669000000
H     0.368000000     5.130000000    -1.381000000
C     0.644000000     4.665000000     0.687000000
C    -0.658000000     5.360000000     1.007000000
H    -0.799000000     6.179000000     0.297000000
H    -0.576000000     5.941000000     1.928000000
C    -1.771000000     4.353000000     1.117000000
C    -2.662000000     4.235000000    -0.027000000
H    -2.396000000     4.832000000    -0.895000000
C    -2.097000000     3.651000000     2.243000000
C    -3.086000000     2.664000000     2.250000000
H    -3.271000000     2.034000000     3.116000000
C    -3.812000000     2.432000000     1.076000000
O    -4.597000000     1.295000000     1.010000000
C    -4.106000000     0.175000000     0.299000000
C    -4.428000000    -1.148000000     1.003000000
C    -4.395000000    -2.349000000     0.309000000
H    -4.170000000    -2.212000000    -0.746000000
C    -4.683000000    -1.171000000     2.370000000
H    -4.642000000    -0.243000000     2.936000000
O    -4.605000000     0.087000000    -1.032000000
H    -3.010000000     0.257000000     0.266000000
C    -3.583000000     3.200000000    -0.085000000
C    -4.357000000     2.961000000    -1.334000000
H    -4.410000000     3.926000000    -1.843000000
H    -5.375000000     2.656000000    -1.080000000
C    -3.700000000     1.945000000    -2.251000000
C    -2.887000000     2.369000000    -3.343000000
H    -2.795000000     3.425000000    -3.584000000
C    -3.889000000     0.556000000    -2.114000000
C    -3.287000000    -0.372000000    -2.997000000
H    -3.258000000    -1.448000000    -2.847000000
C    -2.569000000     0.055000000    -4.155000000
O    -1.882000000    -0.904000000    -4.911000000
C    -0.563000000    -1.108000000    -4.504000000
C    -0.200000000    -2.635000000    -4.286000000
C    -1.119000000    -3.472000000    -3.779000000
H    -2.108000000    -3.101000000    -3.524000000
C     1.091000000    -3.086000000    -4.545000000
H     1.845000000    -2.411000000    -4.941000000
O     0.378000000    -0.395000000    -5.398000000
H    -0.417000000    -0.686000000    -3.499000000
C    -2.303000000     1.428000000    -4.257000000
C    -1.265000000     2.024000000    -5.285000000
H    -1.552000000     3.057000000    -5.490000000
H    -1.388000000     1.493000000    -6.231000000
C     0.175000000     1.970000000    -4.771000000
C     0.881000000     0.783000000    -4.900000000
C     2.086000000     0.669000000    -4.195000000
H     2.649000000    -0.261000000    -4.184000000
C     2.623000000     1.660000000    -3.429000000
O     3.763000000     1.340000000    -2.712000000
C     3.623000000     1.335000000    -1.229000000
H     2.563000000     1.103000000    -1.049000000
C     4.396000000     0.200000000    -0.577000000
C     4.945000000     0.430000000     0.722000000
H     4.854000000     1.431000000     1.136000000
C     4.534000000    -1.055000000    -1.130000000
H     4.012000000    -1.375000000    -2.028000000
C     5.313000000    -1.982000000    -0.526000000
O     5.471000000    -3.234000000    -1.091000000
C     5.913000000    -1.732000000     0.731000000
H     6.466000000    -2.533000000     1.214000000
C     5.719000000    -0.534000000     1.355000000
O     6.400000000    -0.379000000     2.535000000
C     5.874000000     0.474000000     3.457000000
C     4.847000000     0.122000000     4.272000000
H     4.288000000    -0.795000000     4.106000000
C     6.570000000     1.694000000     3.682000000
H     7.369000000     1.985000000     3.005000000
C     6.259000000     2.531000000     4.775000000
H     6.863000000     3.421000000     4.928000000
C     5.164000000     2.095000000     5.619000000
H     5.012000000     2.635000000     6.551000000
C     4.466000000     0.938000000     5.338000000
O     3.353000000     0.560000000     6.133000000
C     2.012000000     0.959000000     5.926000000
C     0.983000000     0.318000000     6.611000000
H     1.233000000    -0.440000000     7.350000000
C    -0.371000000     0.607000000     6.302000000
O    -1.330000000    -0.111000000     6.976000000
C    -2.622000000    -0.295000000     6.508000000
C    -3.057000000    -1.282000000     5.620000000
H    -2.375000000    -2.037000000     5.237000000
C    -3.616000000     0.468000000     7.069000000
H    -3.306000000     1.078000000     7.914000000
C    -4.967000000     0.448000000     6.730000000
H    -5.686000000     1.055000000     7.274000000
C    -5.311000000    -0.514000000     5.860000000
H    -6.360000000    -0.783000000     5.766000000
C    -4.409000000    -1.329000000     5.191000000
O    -4.840000000    -2.398000000     4.438000000
C    -4.771000000    -2.362000000     3.089000000
C    -4.764000000    -3.521000000     2.355000000
H    -4.941000000    -4.406000000     2.961000000
C    -4.772000000    -3.536000000     0.946000000
O    -4.934000000    -4.701000000     0.278000000
C    -4.661000000    -4.883000000    -1.035000000
C    -3.365000000    -5.251000000    -1.404000000
H    -2.612000000    -5.332000000    -0.624000000
C    -5.692000000    -4.928000000    -1.939000000
H    -6.663000000    -4.563000000    -1.615000000
C    -5.351000000    -4.994000000    -3.331000000
H    -6.110000000    -4.849000000    -4.096000000
C    -4.034000000    -5.389000000    -3.709000000
H    -3.741000000    -5.495000000    -4.751000000
C    -2.995000000    -5.393000000    -2.759000000
O    -1.705000000    -5.737000000    -3.090000000
C    -0.802000000    -4.834000000    -3.629000000
C     0.491000000    -5.258000000    -3.962000000
H     0.761000000    -6.303000000    -3.832000000
C     1.457000000    -4.403000000    -4.360000000
O     2.743000000    -4.793000000    -4.707000000
C     3.914000000    -4.200000000    -4.298000000
C     4.902000000    -3.800000000    -5.201000000
H     4.726000000    -3.982000000    -6.258000000
C     5.952000000    -2.992000000    -4.708000000
H     6.667000000    -2.522000000    -5.377000000
C     6.168000000    -2.845000000    -3.319000000
H     7.034000000    -2.305000000    -2.945000000
C     5.217000000    -3.344000000    -2.439000000
C     4.126000000    -4.085000000    -2.903000000
H     3.351000000    -4.348000000    -2.188000000
O    -0.377000000    -5.318000000     1.805000000
H     0.486000000    -4.961000000     1.593000000
H    -0.559000000    -5.939000000     1.100000000
O     5.351000000    -6.763000000     3.751000000
H     4.473000000    -6.785000000     4.131000000
H     5.238000000    -6.319000000     2.911000000
O     2.692000000    -2.331000000     6.648000000
H     3.516000000    -2.369000000     6.162000000
H     2.017000000    -2.282000000     5.971000000
O     2.082000000    -7.801000000     6.080000000
H     1.909000000    -7.415000000     5.221000000
H     2.009000000    -8.744000000     5.938000000
O     2.380000000    -7.242000000     0.016000000
H     2.332000000    -6.286000000     0.015000000
H     1.522000000    -7.525000000     0.333000000
O     2.969000000    -5.281000000     7.048000000
H     3.060000000    -4.546000000     6.442000000
H     3.021000000    -6.058000000     6.492000000
O     0.989000000    -2.640000000     4.413000000
H     0.149000000    -2.576000000     3.959000000
H     1.643000000    -2.513000000     3.726000000
O    -0.960000000    -7.314000000    -0.266000000
H    -0.931000000    -7.756000000    -1.115000000
H    -1.769000000    -7.625000000     0.139000000
O     0.482000000   -10.254000000     2.128000000
H    -0.464000000   -10.390000000     2.176000000
H     0.588000000    -9.303000000     2.119000000
O    -0.074000000    -5.492000000     5.559000000
H    -0.104000000    -4.774000000     6.191000000
H    -0.842000000    -5.355000000     5.004000000
O     4.545000000    -8.852000000     1.100000000
H     5.463000000    -8.674000000     0.896000000
H     4.079000000    -8.068000000     0.810000000
O    -2.141000000    -5.570000000     3.854000000
H    -1.618000000    -5.210000000     3.138000000
H    -3.001000000    -5.732000000     3.465000000
O     2.446000000    -5.785000000     4.286000000
H     2.351000000    -5.081000000     3.644000000
H     1.623000000    -5.776000000     4.775000000
O     3.281000000    -8.402000000    -2.266000000
H     4.167000000    -8.166000000    -2.541000000
H     3.157000000    -7.943000000    -1.436000000
O     4.467000000    -3.439000000     4.630000000
H     3.934000000    -3.315000000     3.845000000
H     5.074000000    -4.142000000     4.399000000
O     0.984000000    -7.796000000     2.716000000
H     0.612000000    -7.039000000     3.168000000
H     1.919000000    -7.601000000     2.650000000
O     5.053000000    -5.315000000     1.512000000
H     4.237000000    -4.923000000     1.201000000
H     5.623000000    -5.324000000     0.743000000
O    -1.077000000    -1.937000000     2.713000000
H    -2.021000000    -2.062000000     2.615000000
H    -0.747000000    -1.890000000     1.816000000
O     6.522000000    -3.142000000     6.416000000
H     6.357000000    -3.400000000     7.323000000
H     5.671000000    -3.228000000     5.985000000
