201
-1271.49560
C    -1.349000000     2.118000000     4.975000000
H    -2.318000000     2.075000000     4.485000000
C    -0.338000000     2.787000000     4.249000000
C     0.981000000     2.725000000     4.753000000
H     1.764000000     3.253000000     4.215000000
C    -0.603000000     3.314000000     2.870000000
O    -1.793000000     3.969000000     2.838000000
H    -0.648000000     2.472000000     2.164000000
O     0.440000000     4.270000000     2.539000000
C     0.964000000     4.237000000     1.299000000
C     2.186000000     3.551000000     1.058000000
H     2.764000000     3.094000000     1.857000000
C     2.755000000     3.465000000    -0.205000000
O     3.871000000     2.620000000    -0.290000000
C     2.129000000     4.116000000    -1.279000000
C     2.786000000     3.997000000    -2.676000000
H     2.430000000     4.806000000    -3.317000000
C     2.424000000     2.684000000    -3.361000000
C     1.232000000     2.679000000    -4.057000000
H     0.617000000     3.574000000    -4.113000000
H     3.867000000     4.113000000    -2.578000000
C     0.957000000     4.881000000    -1.046000000
H     0.418000000     5.153000000    -1.950000000
C     0.342000000     4.840000000     0.192000000
C    -1.046000000     5.472000000     0.455000000
H    -1.220000000     6.228000000    -0.314000000
H    -1.083000000     5.983000000     1.420000000
C    -2.093000000     4.480000000     0.503000000
C    -2.635000000     4.169000000    -0.732000000
H    -2.395000000     4.787000000    -1.593000000
C    -2.502000000     3.819000000     1.626000000
C    -3.421000000     2.763000000     1.559000000
H    -3.660000000     2.175000000     2.443000000
C    -3.909000000     2.427000000     0.303000000
O    -4.702000000     1.299000000     0.091000000
C    -4.155000000     0.116000000    -0.452000000
C    -4.532000000    -1.080000000     0.475000000
C    -4.985000000    -2.242000000    -0.123000000
H    -5.088000000    -2.373000000    -1.197000000
C    -4.572000000    -0.978000000     1.875000000
H    -4.186000000    -0.087000000     2.364000000
O    -4.624000000    -0.061000000    -1.799000000
H    -3.064000000     0.212000000    -0.555000000
C    -3.608000000     3.160000000    -0.843000000
C    -4.173000000     2.737000000    -2.261000000
H    -4.086000000     3.641000000    -2.867000000
H    -5.216000000     2.429000000    -2.159000000
C    -3.446000000     1.727000000    -3.034000000
C    -2.359000000     2.058000000    -3.910000000
H    -2.158000000     3.114000000    -4.075000000
C    -3.713000000     0.358000000    -2.772000000
C    -3.006000000    -0.623000000    -3.428000000
H    -3.158000000    -1.647000000    -3.098000000
C    -1.956000000    -0.254000000    -4.272000000
O    -1.269000000    -1.288000000    -4.781000000
C     0.051000000    -1.469000000    -4.122000000
C     0.332000000    -2.935000000    -3.819000000
C    -0.503000000    -3.685000000    -2.961000000
H    -1.520000000    -3.327000000    -2.826000000
C     1.639000000    -3.453000000    -3.914000000
H     2.381000000    -2.923000000    -4.505000000
O     1.098000000    -0.876000000    -4.952000000
H    -0.052000000    -0.946000000    -3.160000000
C    -1.610000000     1.074000000    -4.546000000
C    -0.487000000     1.503000000    -5.458000000
H    -0.718000000     2.519000000    -5.786000000
H    -0.387000000     0.925000000    -6.379000000
C     0.710000000     1.503000000    -4.617000000
C     1.487000000     0.324000000    -4.533000000
C     2.699000000     0.337000000    -3.852000000
H     3.204000000    -0.612000000    -3.696000000
C     3.229000000     1.486000000    -3.277000000
O     4.209000000     1.440000000    -2.284000000
C     3.760000000     1.330000000    -0.931000000
H     2.708000000     1.028000000    -0.825000000
C     4.523000000     0.286000000    -0.127000000
C     4.482000000     0.282000000     1.271000000
H     4.081000000     1.174000000     1.745000000
C     5.048000000    -0.871000000    -0.743000000
H     5.140000000    -0.879000000    -1.826000000
C     5.492000000    -1.994000000    -0.008000000
O     6.195000000    -2.922000000    -0.616000000
C     5.281000000    -1.987000000     1.377000000
H     5.606000000    -2.849000000     1.955000000
C     4.851000000    -0.849000000     1.956000000
O     5.011000000    -0.755000000     3.336000000
C     4.924000000     0.450000000     4.022000000
C     3.819000000     0.548000000     4.936000000
H     3.076000000    -0.244000000     4.994000000
C     5.870000000     1.506000000     3.895000000
H     6.746000000     1.348000000     3.272000000
C     5.599000000     2.736000000     4.512000000
H     6.332000000     3.511000000     4.302000000
C     4.497000000     2.857000000     5.430000000
H     4.218000000     3.835000000     5.813000000
C     3.631000000     1.784000000     5.626000000
O     2.580000000     1.886000000     6.440000000
C     1.305000000     1.950000000     5.906000000
C     0.282000000     1.302000000     6.578000000
H     0.429000000     0.666000000     7.447000000
C    -1.065000000     1.349000000     6.116000000
O    -2.040000000     0.640000000     6.813000000
C    -3.298000000     0.515000000     6.293000000
C    -3.513000000    -0.571000000     5.434000000
H    -2.652000000    -1.194000000     5.204000000
C    -4.342000000     1.317000000     6.666000000
H    -4.183000000     2.118000000     7.384000000
C    -5.592000000     1.149000000     6.066000000
H    -6.452000000     1.792000000     6.236000000
C    -5.760000000     0.088000000     5.207000000
H    -6.744000000    -0.025000000     4.759000000
C    -4.734000000    -0.830000000     4.818000000
O    -4.945000000    -1.989000000     4.044000000
C    -4.930000000    -2.059000000     2.659000000
C    -5.262000000    -3.266000000     2.048000000
H    -5.501000000    -4.105000000     2.696000000
C    -5.277000000    -3.324000000     0.669000000
O    -5.524000000    -4.555000000     0.084000000
C    -4.656000000    -5.037000000    -0.959000000
C    -3.240000000    -4.895000000    -0.884000000
H    -2.800000000    -4.414000000    -0.014000000
C    -5.202000000    -5.738000000    -2.065000000
H    -6.266000000    -5.684000000    -2.281000000
C    -4.346000000    -6.438000000    -2.873000000
H    -4.768000000    -7.092000000    -3.632000000
C    -2.935000000    -6.434000000    -2.734000000
H    -2.265000000    -6.966000000    -3.405000000
C    -2.369000000    -5.540000000    -1.819000000
O    -1.023000000    -5.622000000    -1.604000000
C    -0.151000000    -4.906000000    -2.413000000
C     1.067000000    -5.484000000    -2.704000000
H     1.333000000    -6.471000000    -2.335000000
C     2.010000000    -4.716000000    -3.444000000
O     3.294000000    -5.210000000    -3.759000000
C     4.452000000    -4.453000000    -3.477000000
C     5.505000000    -4.543000000    -4.377000000
H     5.350000000    -5.082000000    -5.309000000
C     6.760000000    -3.943000000    -4.031000000
H     7.603000000    -4.156000000    -4.684000000
C     6.986000000    -3.420000000    -2.794000000
H     8.002000000    -3.171000000    -2.499000000
C     5.885000000    -3.373000000    -1.881000000
C     4.656000000    -3.892000000    -2.213000000
H     3.829000000    -3.722000000    -1.528000000
O    -0.225000000    -6.812000000     1.297000000
H     0.209000000    -5.997000000     1.549000000
H    -0.087000000    -6.875000000     0.352000000
O     3.846000000    -3.224000000     6.641000000
H     4.039000000    -2.305000000     6.827000000
H     4.213000000    -3.701000000     7.385000000
O     3.493000000    -8.582000000     3.200000000
H     2.717000000    -8.024000000     3.241000000
H     3.954000000    -8.293000000     2.412000000
O    -1.971000000    -5.913000000     4.644000000
H    -1.087000000    -6.257000000     4.512000000
H    -2.503000000    -6.362000000     3.988000000
O     3.948000000    -5.260000000     1.456000000
H     4.166000000    -4.747000000     2.235000000
H     2.993000000    -5.222000000     1.404000000
O     4.321000000    -6.868000000     6.098000000
H     3.599000000    -6.667000000     6.694000000
H     4.122000000    -6.371000000     5.305000000
O     0.394000000    -1.885000000     4.830000000
H     1.029000000    -2.349000000     4.283000000
H    -0.236000000    -1.520000000     4.208000000
O     0.601000000    -8.666000000    -0.621000000
H     0.485000000    -9.078000000    -1.477000000
H     1.548000000    -8.551000000    -0.537000000
O     6.846000000    -4.719000000     2.651000000
H     7.747000000    -5.026000000     2.551000000
H     6.600000000    -4.983000000     3.538000000
O    -1.454000000    -3.973000000     2.393000000
H    -0.613000000    -4.409000000     2.254000000
H    -1.858000000    -4.456000000     3.115000000
O     1.589000000    -1.897000000     7.266000000
H     0.976000000    -1.964000000     6.534000000
H     2.243000000    -2.574000000     7.094000000
O    -2.975000000    -7.573000000     2.862000000
H    -3.491000000    -8.193000000     2.347000000
H    -2.341000000    -7.216000000     2.240000000
O     1.168000000    -5.542000000     5.187000000
H     1.366000000    -6.311000000     4.652000000
H     1.412000000    -4.798000000     4.636000000
O     2.034000000    -5.872000000     7.575000000
H     1.303000000    -6.331000000     7.988000000
H     1.695000000    -5.602000000     6.721000000
O    -1.284000000    -3.471000000     6.196000000
H    -0.696000000    -2.936000000     5.663000000
H    -1.173000000    -4.359000000     5.857000000
O     4.036000000    -4.582000000     4.307000000
H     3.248000000    -4.240000000     3.886000000
H     4.037000000    -4.182000000     5.177000000
O     1.038000000    -7.646000000     3.465000000
H     0.681000000    -7.290000000     2.651000000
H     0.351000000    -8.225000000     3.795000000
O     4.608000000    -7.906000000     0.701000000
H     5.381000000    -7.992000000     0.144000000
H     4.501000000    -6.962000000     0.819000000
O    -1.714000000    -1.294000000     2.827000000
H    -1.831000000    -2.227000000     2.646000000
H    -1.253000000    -0.957000000     2.059000000
