201
-1229.04871
C    -0.790000000     1.153000000     4.935000000
H    -1.783000000     1.066000000     4.503000000
C     0.138000000     2.063000000     4.467000000
C     1.415000000     2.077000000     5.013000000
H     2.142000000     2.739000000     4.549000000
C    -0.228000000     2.941000000     3.311000000
O    -1.687000000     3.344000000     3.345000000
H    -0.048000000     2.312000000     2.427000000
O     0.595000000     4.107000000     3.200000000
C     0.957000000     4.318000000     1.917000000
C     2.289000000     3.863000000     1.586000000
H     2.955000000     3.388000000     2.301000000
C     2.693000000     3.848000000     0.207000000
O     3.932000000     3.266000000    -0.047000000
C     1.880000000     4.370000000    -0.757000000
C     2.412000000     4.597000000    -2.200000000
H     2.078000000     5.530000000    -2.659000000
C     1.999000000     3.366000000    -2.905000000
C     0.719000000     3.294000000    -3.519000000
H    -0.039000000     4.070000000    -3.459000000
H     3.501000000     4.685000000    -2.186000000
C     0.675000000     4.873000000    -0.340000000
H     0.091000000     5.317000000    -1.142000000
C     0.145000000     4.804000000     0.926000000
C    -1.232000000     5.376000000     1.206000000
H    -1.446000000     6.192000000     0.513000000
H    -1.288000000     5.821000000     2.201000000
C    -2.247000000     4.244000000     1.168000000
C    -2.930000000     4.020000000    -0.052000000
H    -2.708000000     4.677000000    -0.889000000
C    -2.425000000     3.319000000     2.161000000
C    -3.354000000     2.249000000     2.009000000
H    -3.425000000     1.516000000     2.808000000
C    -3.950000000     2.045000000     0.774000000
O    -4.669000000     0.910000000     0.587000000
C    -4.339000000    -0.080000000    -0.349000000
C    -4.628000000    -1.455000000     0.303000000
C    -5.360000000    -2.429000000    -0.374000000
H    -5.493000000    -2.282000000    -1.442000000
C    -4.259000000    -1.782000000     1.619000000
H    -3.652000000    -1.071000000     2.174000000
O    -4.976000000     0.119000000    -1.560000000
H    -3.254000000     0.050000000    -0.474000000
C    -3.795000000     2.992000000    -0.223000000
C    -4.414000000     2.952000000    -1.627000000
H    -4.423000000     3.980000000    -1.994000000
H    -5.469000000     2.750000000    -1.428000000
C    -3.826000000     1.928000000    -2.640000000
C    -2.864000000     2.431000000    -3.472000000
H    -2.706000000     3.506000000    -3.477000000
C    -4.162000000     0.578000000    -2.563000000
C    -3.421000000    -0.281000000    -3.300000000
H    -3.503000000    -1.348000000    -3.104000000
C    -2.459000000     0.215000000    -4.181000000
O    -1.561000000    -0.756000000    -4.609000000
C    -0.208000000    -0.837000000    -3.951000000
C     0.046000000    -2.310000000    -3.595000000
C    -0.950000000    -3.272000000    -3.547000000
H    -1.965000000    -2.937000000    -3.751000000
C     1.391000000    -2.692000000    -3.409000000
H     2.197000000    -1.964000000    -3.368000000
O     0.848000000    -0.233000000    -4.686000000
H    -0.326000000    -0.299000000    -2.999000000
C    -2.108000000     1.592000000    -4.202000000
C    -0.927000000     2.155000000    -4.933000000
H    -1.029000000     3.187000000    -5.276000000
H    -0.818000000     1.504000000    -5.803000000
C     0.363000000     2.098000000    -4.192000000
C     1.223000000     1.018000000    -4.259000000
C     2.525000000     1.146000000    -3.776000000
H     3.172000000     0.279000000    -3.885000000
C     2.866000000     2.300000000    -2.981000000
O     3.969000000     2.286000000    -2.214000000
C     3.884000000     1.995000000    -0.797000000
H     2.832000000     1.716000000    -0.636000000
C     4.928000000     0.987000000    -0.324000000
C     4.855000000     0.676000000     1.027000000
H     4.261000000     1.276000000     1.711000000
C     5.632000000     0.129000000    -1.242000000
H     5.424000000     0.218000000    -2.305000000
C     6.292000000    -0.952000000    -0.712000000
O     6.901000000    -1.903000000    -1.646000000
C     6.325000000    -1.268000000     0.660000000
H     6.904000000    -2.107000000     1.040000000
C     5.590000000    -0.438000000     1.491000000
O     5.549000000    -0.743000000     2.817000000
C     5.512000000     0.201000000     3.784000000
C     4.445000000     0.156000000     4.623000000
H     3.553000000    -0.428000000     4.410000000
C     6.569000000     1.120000000     4.036000000
H     7.441000000     1.122000000     3.387000000
C     6.418000000     2.074000000     5.041000000
H     7.119000000     2.902000000     5.119000000
C     5.281000000     2.035000000     5.846000000
H     5.065000000     2.732000000     6.651000000
C     4.272000000     1.139000000     5.640000000
O     3.173000000     1.205000000     6.429000000
C     1.866000000     1.179000000     5.974000000
C     0.951000000     0.285000000     6.431000000
H     1.170000000    -0.400000000     7.246000000
C    -0.379000000     0.230000000     5.916000000
O    -1.196000000    -0.870000000     6.286000000
C    -2.454000000    -1.042000000     5.838000000
C    -2.741000000    -1.979000000     4.814000000
H    -1.832000000    -2.347000000     4.347000000
C    -3.538000000    -0.546000000     6.583000000
H    -3.277000000    -0.025000000     7.500000000
C    -4.852000000    -0.772000000     6.136000000
H    -5.626000000    -0.288000000     6.728000000
C    -5.131000000    -1.641000000     5.062000000
H    -6.191000000    -1.769000000     4.857000000
C    -4.084000000    -2.226000000     4.392000000
O    -4.275000000    -3.240000000     3.507000000
C    -4.591000000    -3.001000000     2.210000000
C    -5.156000000    -4.043000000     1.410000000
H    -5.293000000    -5.033000000     1.838000000
C    -5.573000000    -3.694000000     0.101000000
O    -5.981000000    -4.647000000    -0.770000000
C    -5.214000000    -5.009000000    -1.860000000
C    -3.859000000    -4.882000000    -1.802000000
H    -3.371000000    -4.528000000    -0.897000000
C    -5.812000000    -5.478000000    -3.028000000
H    -6.897000000    -5.509000000    -3.090000000
C    -5.007000000    -5.880000000    -4.107000000
H    -5.495000000    -6.363000000    -4.950000000
C    -3.633000000    -5.682000000    -4.107000000
H    -2.992000000    -5.962000000    -4.939000000
C    -3.041000000    -5.246000000    -2.883000000
O    -1.648000000    -5.409000000    -2.747000000
C    -0.680000000    -4.571000000    -3.183000000
C     0.646000000    -4.911000000    -2.902000000
H     1.015000000    -5.846000000    -2.487000000
C     1.666000000    -3.987000000    -3.058000000
O     2.921000000    -4.386000000    -2.521000000
C     4.030000000    -3.769000000    -3.007000000
C     4.448000000    -3.963000000    -4.336000000
H     3.859000000    -4.601000000    -4.990000000
C     5.690000000    -3.523000000    -4.691000000
H     5.973000000    -3.825000000    -5.696000000
C     6.541000000    -2.843000000    -3.773000000
H     7.491000000    -2.423000000    -4.092000000
C     6.002000000    -2.468000000    -2.560000000
C     4.806000000    -3.013000000    -2.102000000
H     4.446000000    -2.756000000    -1.109000000
O    -1.899000000    -6.571000000     1.821000000
H    -1.073000000    -6.208000000     1.502000000
H    -1.998000000    -6.204000000     2.700000000
O     4.366000000    -8.531000000     0.440000000
H     4.157000000    -9.036000000    -0.346000000
H     4.163000000    -7.625000000     0.204000000
O     5.081000000    -3.594000000     6.742000000
H     5.514000000    -2.741000000     6.765000000
H     5.126000000    -3.862000000     5.824000000
O     7.156000000    -3.760000000     4.526000000
H     6.213000000    -3.755000000     4.366000000
H     7.381000000    -4.687000000     4.607000000
O    -4.046000000    -7.804000000     0.835000000
H    -3.244000000    -7.321000000     1.036000000
H    -3.874000000    -8.693000000     1.147000000
O     1.694000000    -8.762000000     2.281000000
H     1.733000000    -8.354000000     1.417000000
H     1.476000000    -9.678000000     2.105000000
O     1.696000000    -7.205000000     0.017000000
H     1.589000000    -6.335000000     0.402000000
H     0.802000000    -7.531000000    -0.089000000
O    -0.825000000    -8.177000000    -0.192000000
H    -1.486000000    -7.745000000     0.349000000
H    -1.239000000    -8.264000000    -1.051000000
O     6.025000000    -6.960000000     3.722000000
H     5.923000000    -7.879000000     3.967000000
H     6.444000000    -6.555000000     4.481000000
O     0.205000000    -4.361000000     6.598000000
H     0.338000000    -4.085000000     5.691000000
H     0.981000000    -4.883000000     6.805000000
O    -0.696000000    -7.714000000     5.225000000
H    -0.407000000    -8.606000000     5.030000000
H     0.012000000    -7.157000000     4.903000000
O     4.455000000    -7.119000000    -2.228000000
H     5.312000000    -7.416000000    -2.535000000
H     4.529000000    -6.165000000    -2.197000000
O     2.492000000    -5.719000000     5.573000000
H     3.244000000    -5.163000000     5.370000000
H     2.072000000    -5.872000000     4.727000000
O     4.546000000    -4.343000000     3.796000000
H     3.843000000    -4.130000000     3.183000000
H     4.750000000    -5.261000000     3.617000000
O     1.130000000    -6.224000000     3.203000000
H     1.382000000    -5.805000000     2.381000000
H     1.372000000    -7.143000000     3.088000000
O     4.378000000    -5.650000000     0.247000000
H     3.569000000    -5.553000000    -0.255000000
H     4.097000000    -5.635000000     1.161000000
O     7.139000000    -5.450000000    -0.433000000
H     7.162000000    -5.991000000    -1.222000000
H     6.267000000    -5.596000000    -0.067000000
O     0.694000000    -3.638000000     4.083000000
H     0.589000000    -2.817000000     3.602000000
H     1.249000000    -4.177000000     3.520000000
O     2.482000000    -9.183000000    -2.188000000
H     2.067000000    -9.316000000    -1.336000000
H     2.984000000    -8.374000000    -2.087000000
