201
-1242.17751
C    -1.821000000     1.108000000     5.189000000
H    -2.805000000     1.179000000     4.732000000
C    -0.735000000     1.905000000     4.715000000
C     0.534000000     1.696000000     5.255000000
H     1.395000000     2.160000000     4.780000000
C    -0.821000000     2.833000000     3.460000000
O    -2.179000000     3.279000000     3.264000000
H    -0.529000000     2.118000000     2.676000000
O     0.120000000     3.874000000     3.361000000
C     0.658000000     4.047000000     2.109000000
C     1.918000000     3.518000000     1.879000000
H     2.436000000     2.957000000     2.653000000
C     2.553000000     3.636000000     0.625000000
O     3.735000000     2.974000000     0.409000000
C     1.907000000     4.309000000    -0.434000000
C     2.548000000     4.481000000    -1.834000000
H     2.245000000     5.391000000    -2.356000000
C     2.197000000     3.314000000    -2.723000000
C     1.038000000     3.259000000    -3.451000000
H     0.358000000     4.103000000    -3.371000000
H     3.625000000     4.599000000    -1.695000000
C     0.580000000     4.791000000    -0.170000000
H    -0.045000000     5.122000000    -0.995000000
C    -0.040000000     4.679000000     1.053000000
C    -1.474000000     5.172000000     1.306000000
H    -1.816000000     6.016000000     0.702000000
H    -1.436000000     5.518000000     2.341000000
C    -2.448000000     4.127000000     1.040000000
C    -3.063000000     4.018000000    -0.204000000
H    -2.839000000     4.771000000    -0.954000000
C    -2.816000000     3.213000000     2.052000000
C    -3.691000000     2.176000000     1.828000000
H    -3.913000000     1.454000000     2.609000000
C    -4.184000000     2.029000000     0.514000000
O    -4.761000000     0.752000000     0.318000000
C    -3.961000000    -0.237000000    -0.385000000
C    -3.967000000    -1.618000000     0.302000000
C    -3.336000000    -2.692000000    -0.313000000
H    -3.122000000    -2.530000000    -1.367000000
C    -4.395000000    -1.790000000     1.654000000
H    -4.838000000    -0.977000000     2.223000000
O    -4.310000000    -0.250000000    -1.796000000
H    -2.900000000     0.005000000    -0.229000000
C    -3.911000000     2.969000000    -0.537000000
C    -4.423000000     2.653000000    -1.906000000
H    -4.528000000     3.542000000    -2.531000000
H    -5.453000000     2.292000000    -1.934000000
C    -3.393000000     1.794000000    -2.665000000
C    -2.388000000     2.431000000    -3.431000000
H    -2.308000000     3.512000000    -3.511000000
C    -3.501000000     0.424000000    -2.692000000
C    -2.784000000    -0.344000000    -3.576000000
H    -2.992000000    -1.407000000    -3.671000000
C    -1.848000000     0.304000000    -4.364000000
O    -1.006000000    -0.516000000    -5.064000000
C     0.224000000    -0.826000000    -4.427000000
C     0.621000000    -2.275000000    -4.525000000
C    -0.285000000    -3.285000000    -4.628000000
H    -1.360000000    -3.167000000    -4.520000000
C     1.981000000    -2.615000000    -4.386000000
H     2.701000000    -1.844000000    -4.123000000
O     1.339000000    -0.040000000    -4.917000000
H     0.271000000    -0.614000000    -3.348000000
C    -1.614000000     1.677000000    -4.297000000
C    -0.466000000     2.352000000    -5.096000000
H    -0.550000000     3.434000000    -5.222000000
H    -0.440000000     1.835000000    -6.057000000
C     0.785000000     2.207000000    -4.278000000
C     1.636000000     1.138000000    -4.302000000
C     2.788000000     1.143000000    -3.515000000
H     3.300000000     0.196000000    -3.365000000
C     3.138000000     2.276000000    -2.702000000
O     4.146000000     2.104000000    -1.855000000
C     3.650000000     1.796000000    -0.528000000
H     2.636000000     1.371000000    -0.566000000
C     4.432000000     0.697000000     0.199000000
C     4.478000000     0.653000000     1.569000000
H     3.943000000     1.338000000     2.222000000
C     4.933000000    -0.335000000    -0.604000000
H     4.933000000    -0.241000000    -1.687000000
C     5.552000000    -1.404000000     0.011000000
O     6.010000000    -2.504000000    -0.769000000
C     5.644000000    -1.483000000     1.405000000
H     6.136000000    -2.362000000     1.815000000
C     5.081000000    -0.481000000     2.221000000
O     5.008000000    -0.673000000     3.596000000
C     4.679000000     0.226000000     4.507000000
C     3.497000000     0.044000000     5.275000000
H     2.886000000    -0.838000000     5.102000000
C     5.257000000     1.479000000     4.519000000
H     6.125000000     1.671000000     3.894000000
C     4.881000000     2.420000000     5.505000000
H     5.440000000     3.351000000     5.523000000
C     3.823000000     2.191000000     6.397000000
H     3.558000000     2.928000000     7.151000000
C     3.109000000     0.965000000     6.241000000
O     1.891000000     0.716000000     6.981000000
C     0.622000000     0.873000000     6.407000000
C    -0.528000000     0.146000000     6.949000000
H    -0.441000000    -0.492000000     7.825000000
C    -1.686000000     0.276000000     6.255000000
O    -2.713000000    -0.513000000     6.709000000
C    -3.834000000    -0.857000000     6.014000000
C    -3.787000000    -1.912000000     5.141000000
H    -2.892000000    -2.520000000     5.042000000
C    -4.982000000    -0.132000000     6.203000000
H    -5.038000000     0.751000000     6.835000000
C    -6.034000000    -0.261000000     5.268000000
H    -6.839000000     0.467000000     5.319000000
C    -6.069000000    -1.435000000     4.482000000
H    -6.919000000    -1.666000000     3.845000000
C    -4.894000000    -2.245000000     4.396000000
O    -4.829000000    -3.288000000     3.493000000
C    -4.312000000    -3.021000000     2.254000000
C    -3.674000000    -4.075000000     1.584000000
H    -3.598000000    -5.061000000     2.035000000
C    -3.162000000    -3.942000000     0.310000000
O    -2.646000000    -5.011000000    -0.303000000
C    -2.790000000    -5.294000000    -1.615000000
C    -1.721000000    -5.333000000    -2.484000000
H    -0.680000000    -5.261000000    -2.182000000
C    -4.078000000    -5.418000000    -2.169000000
H    -4.944000000    -5.409000000    -1.512000000
C    -4.282000000    -5.704000000    -3.516000000
H    -5.291000000    -5.801000000    -3.908000000
C    -3.200000000    -5.745000000    -4.386000000
H    -3.298000000    -5.781000000    -5.468000000
C    -1.929000000    -5.531000000    -3.875000000
O    -0.926000000    -5.464000000    -4.789000000
C     0.094000000    -4.569000000    -4.651000000
C     1.416000000    -4.947000000    -4.635000000
H     1.760000000    -5.949000000    -4.877000000
C     2.377000000    -3.935000000    -4.501000000
O     3.791000000    -4.296000000    -4.566000000
C     4.794000000    -3.521000000    -4.017000000
C     5.525000000    -2.693000000    -4.886000000
H     5.526000000    -2.667000000    -5.973000000
C     6.579000000    -1.908000000    -4.291000000
H     7.263000000    -1.368000000    -4.942000000
C     6.783000000    -1.843000000    -2.939000000
H     7.485000000    -1.171000000    -2.453000000
C     5.936000000    -2.572000000    -2.127000000
C     4.943000000    -3.339000000    -2.640000000
H     4.323000000    -3.908000000    -1.953000000
O    -0.494000000    -5.113000000     1.501000000
H     0.370000000    -5.154000000     1.091000000
H    -1.062000000    -4.740000000     0.827000000
O    -0.485000000    -9.108000000     1.524000000
H     0.388000000    -8.765000000     1.333000000
H    -0.356000000   -10.051000000     1.621000000
O     5.361000000    -5.626000000     1.309000000
H     5.628000000    -5.902000000     0.432000000
H     4.475000000    -5.282000000     1.192000000
O     1.451000000    -7.661000000    -2.467000000
H     1.276000000    -7.906000000    -3.376000000
H     0.806000000    -8.151000000    -1.958000000
O     0.239000000    -3.139000000     6.410000000
H    -0.169000000    -3.256000000     5.552000000
H     1.154000000    -3.386000000     6.276000000
O     4.132000000    -7.566000000     5.076000000
H     3.940000000    -6.803000000     5.621000000
H     3.891000000    -7.295000000     4.190000000
O     6.177000000    -8.077000000     2.464000000
H     6.238000000    -7.826000000     3.386000000
H     6.066000000    -7.248000000     1.998000000
O     5.971000000    -6.238000000    -1.608000000
H     6.225000000    -5.632000000    -2.304000000
H     5.017000000    -6.285000000    -1.668000000
O     4.049000000    -9.261000000    -0.361000000
H     4.877000000    -8.782000000    -0.322000000
H     4.234000000   -10.095000000     0.072000000
O    -1.759000000    -7.212000000     2.781000000
H    -1.193000000    -6.532000000     2.418000000
H    -1.349000000    -8.034000000     2.511000000
O     1.875000000    -6.250000000     3.623000000
H     2.352000000    -5.436000000     3.462000000
H     1.522000000    -6.494000000     2.767000000
O     4.303000000    -3.593000000     4.481000000
H     3.762000000    -3.868000000     3.741000000
H     4.866000000    -2.906000000     4.124000000
O     1.818000000    -7.809000000     0.812000000
H     2.366000000    -8.266000000     0.174000000
H     1.773000000    -6.910000000     0.488000000
O     3.214000000    -6.016000000    -1.549000000
H     2.749000000    -5.387000000    -0.996000000
H     2.523000000    -6.564000000    -1.921000000
O     7.499000000    -4.672000000     3.035000000
H     6.870000000    -4.721000000     2.315000000
H     6.958000000    -4.625000000     3.823000000
O    -0.518000000    -2.952000000     3.622000000
H     0.170000000    -2.417000000     3.227000000
H    -0.729000000    -3.604000000     2.954000000
O     2.893000000    -4.151000000     6.827000000
H     3.473000000    -4.040000000     6.074000000
H     3.479000000    -4.373000000     7.551000000
O     0.568000000    -8.049000000     5.278000000
H     0.171000000    -7.386000000     5.843000000
H     1.080000000    -7.547000000     4.644000000
O     5.968000000    -5.055000000     5.954000000
H     6.521000000    -4.347000000     6.284000000
H     5.267000000    -4.610000000     5.478000000
