201
-1236.51481
C    -1.172000000     0.908000000     5.381000000
H    -2.147000000     1.356000000     5.208000000
C    -0.096000000     1.419000000     4.698000000
C     1.184000000     0.864000000     4.932000000
H     1.989000000     1.258000000     4.316000000
C    -0.401000000     2.457000000     3.622000000
O    -1.760000000     2.984000000     3.590000000
H    -0.261000000     1.828000000     2.731000000
O     0.662000000     3.497000000     3.580000000
C     1.097000000     3.863000000     2.333000000
C     2.390000000     3.545000000     1.915000000
H     3.059000000     3.034000000     2.603000000
C     2.871000000     3.758000000     0.680000000
O     4.098000000     3.164000000     0.407000000
C     2.109000000     4.492000000    -0.190000000
C     2.509000000     4.789000000    -1.656000000
H     1.977000000     5.678000000    -2.000000000
C     2.155000000     3.632000000    -2.524000000
C     1.052000000     3.743000000    -3.269000000
H     0.456000000     4.640000000    -3.117000000
H     3.600000000     4.816000000    -1.693000000
C     0.857000000     4.972000000     0.198000000
H     0.272000000     5.614000000    -0.455000000
C     0.348000000     4.641000000     1.435000000
C    -1.051000000     5.173000000     1.804000000
H    -1.222000000     6.141000000     1.330000000
H    -1.094000000     5.396000000     2.872000000
C    -2.072000000     4.114000000     1.442000000
C    -2.736000000     4.070000000     0.146000000
H    -2.528000000     4.822000000    -0.611000000
C    -2.443000000     3.152000000     2.413000000
C    -3.333000000     2.169000000     2.115000000
H    -3.547000000     1.343000000     2.788000000
C    -3.974000000     2.107000000     0.838000000
O    -4.716000000     0.974000000     0.563000000
C    -4.115000000     0.027000000    -0.264000000
C    -4.387000000    -1.395000000     0.308000000
C    -4.494000000    -2.540000000    -0.516000000
H    -4.585000000    -2.366000000    -1.585000000
C    -4.278000000    -1.667000000     1.694000000
H    -4.077000000    -0.759000000     2.257000000
O    -4.597000000     0.158000000    -1.635000000
H    -3.025000000     0.170000000    -0.238000000
C    -3.753000000     3.118000000    -0.068000000
C    -4.389000000     3.062000000    -1.445000000
H    -4.443000000     4.089000000    -1.813000000
H    -5.360000000     2.563000000    -1.438000000
C    -3.530000000     2.242000000    -2.410000000
C    -2.670000000     2.796000000    -3.332000000
H    -2.573000000     3.865000000    -3.162000000
C    -3.777000000     0.845000000    -2.502000000
C    -3.169000000     0.157000000    -3.539000000
H    -3.339000000    -0.910000000    -3.655000000
C    -2.164000000     0.737000000    -4.331000000
O    -1.339000000    -0.098000000    -5.090000000
C    -0.091000000    -0.412000000    -4.374000000
C     0.281000000    -1.964000000    -4.457000000
C    -0.705000000    -2.831000000    -4.781000000
H    -1.659000000    -2.498000000    -5.183000000
C     1.481000000    -2.442000000    -3.979000000
H     2.185000000    -1.714000000    -3.585000000
O     1.028000000     0.424000000    -4.813000000
H    -0.193000000    -0.078000000    -3.331000000
C    -1.839000000     2.089000000    -4.217000000
C    -0.651000000     2.726000000    -4.882000000
H    -0.881000000     3.791000000    -4.963000000
H    -0.462000000     2.418000000    -5.912000000
C     0.657000000     2.679000000    -4.063000000
C     1.347000000     1.503000000    -4.084000000
C     2.528000000     1.436000000    -3.349000000
H     3.155000000     0.567000000    -3.531000000
C     2.959000000     2.451000000    -2.509000000
O     4.045000000     2.237000000    -1.704000000
C     4.031000000     1.958000000    -0.331000000
H     3.060000000     1.537000000    -0.032000000
C     4.930000000     0.798000000     0.068000000
C     5.107000000     0.460000000     1.395000000
H     4.624000000     1.104000000     2.126000000
C     5.413000000    -0.108000000    -0.894000000
H     5.127000000     0.037000000    -1.933000000
C     6.124000000    -1.213000000    -0.504000000
O     6.557000000    -2.169000000    -1.413000000
C     6.524000000    -1.376000000     0.832000000
H     7.037000000    -2.289000000     1.121000000
C     5.936000000    -0.552000000     1.734000000
O     6.146000000    -0.869000000     3.043000000
C     5.510000000    -0.354000000     4.149000000
C     4.297000000    -0.841000000     4.616000000
H     3.793000000    -1.672000000     4.130000000
C     6.134000000     0.717000000     4.798000000
H     7.121000000     0.930000000     4.397000000
C     5.450000000     1.354000000     5.836000000
H     6.013000000     2.072000000     6.426000000
C     4.266000000     0.858000000     6.289000000
H     3.813000000     1.107000000     7.246000000
C     3.672000000    -0.203000000     5.672000000
O     2.531000000    -0.728000000     6.157000000
C     1.328000000    -0.212000000     5.827000000
C     0.200000000    -0.639000000     6.546000000
H     0.269000000    -1.488000000     7.221000000
C    -1.032000000    -0.124000000     6.272000000
O    -2.141000000    -0.689000000     6.861000000
C    -3.339000000    -0.977000000     6.137000000
C    -3.274000000    -1.991000000     5.242000000
H    -2.364000000    -2.551000000     5.042000000
C    -4.553000000    -0.296000000     6.364000000
H    -4.580000000     0.620000000     6.949000000
C    -5.710000000    -0.700000000     5.714000000
H    -6.623000000    -0.153000000     5.934000000
C    -5.628000000    -1.708000000     4.776000000
H    -6.471000000    -1.992000000     4.152000000
C    -4.454000000    -2.273000000     4.493000000
O    -4.246000000    -3.267000000     3.538000000
C    -4.316000000    -2.979000000     2.197000000
C    -4.383000000    -4.066000000     1.371000000
H    -4.607000000    -5.058000000     1.755000000
C    -4.491000000    -3.803000000    -0.038000000
O    -4.483000000    -4.860000000    -0.959000000
C    -4.323000000    -4.746000000    -2.274000000
C    -3.017000000    -4.896000000    -2.812000000
H    -2.119000000    -5.018000000    -2.212000000
C    -5.414000000    -4.541000000    -3.187000000
H    -6.439000000    -4.439000000    -2.841000000
C    -5.196000000    -4.513000000    -4.589000000
H    -6.004000000    -4.375000000    -5.303000000
C    -3.935000000    -4.841000000    -5.077000000
H    -3.735000000    -5.011000000    -6.132000000
C    -2.908000000    -5.059000000    -4.185000000
O    -1.628000000    -5.127000000    -4.770000000
C    -0.630000000    -4.179000000    -4.476000000
C     0.612000000    -4.706000000    -4.128000000
H     0.732000000    -5.776000000    -3.981000000
C     1.660000000    -3.835000000    -3.920000000
O     2.860000000    -4.361000000    -3.483000000
C     4.055000000    -3.717000000    -3.559000000
C     4.742000000    -3.769000000    -4.707000000
H     4.258000000    -4.067000000    -5.634000000
C     5.918000000    -3.090000000    -4.927000000
H     6.412000000    -3.038000000    -5.893000000
C     6.504000000    -2.467000000    -3.809000000
H     7.446000000    -1.957000000    -3.992000000
C     5.889000000    -2.563000000    -2.567000000
C     4.574000000    -3.068000000    -2.434000000
H     4.155000000    -3.123000000    -1.432000000
O    -1.479000000    -4.703000000     1.840000000
H    -0.684000000    -5.005000000     1.401000000
H    -2.165000000    -5.293000000     1.528000000
O     3.244000000    -9.828000000    -0.927000000
H     3.747000000   -10.215000000    -0.211000000
H     2.622000000    -9.243000000    -0.495000000
O    -1.701000000    -9.005000000     2.592000000
H    -1.070000000    -8.302000000     2.441000000
H    -2.066000000    -8.818000000     3.457000000
O     3.425000000    -6.920000000     1.103000000
H     2.897000000    -6.210000000     0.738000000
H     2.813000000    -7.648000000     1.202000000
O    -0.490000000    -7.935000000    -2.634000000
H    -1.034000000    -8.173000000    -1.883000000
H     0.356000000    -7.700000000    -2.253000000
O    -2.834000000    -6.830000000     0.646000000
H    -2.811000000    -7.053000000    -0.285000000
H    -3.040000000    -7.655000000     1.085000000
O     0.555000000    -3.152000000     4.929000000
H     0.161000000    -2.393000000     4.499000000
H     0.902000000    -3.681000000     4.211000000
O     4.868000000    -6.326000000    -1.300000000
H     4.464000000    -6.739000000    -0.537000000
H     5.800000000    -6.531000000    -1.218000000
O     1.954000000    -4.937000000     3.358000000
H     2.446000000    -4.625000000     2.598000000
H     2.625000000    -5.242000000     3.968000000
O     5.640000000    -6.997000000    -4.203000000
H     5.233000000    -7.857000000    -4.305000000
H     5.272000000    -6.654000000    -3.389000000
O     5.206000000    -4.310000000     0.872000000
H     4.275000000    -4.235000000     1.080000000
H     5.231000000    -4.420000000    -0.079000000
O     0.460000000    -6.856000000     2.112000000
H     0.856000000    -6.339000000     2.814000000
H     0.530000000    -6.301000000     1.336000000
O     1.474000000    -9.290000000     1.974000000
H     0.850000000    -9.504000000     1.280000000
H     1.242000000    -8.399000000     2.238000000
O     1.921000000    -6.649000000    -1.578000000
H     1.716000000    -5.922000000    -0.990000000
H     2.865000000    -6.582000000    -1.722000000
O     8.048000000    -5.614000000     1.424000000
H     7.969000000    -6.108000000     0.608000000
H     7.161000000    -5.599000000     1.782000000
O    -0.447000000    -1.791000000     2.797000000
H     0.229000000    -1.762000000     2.120000000
H    -1.266000000    -1.894000000     2.311000000
O     4.211000000    -6.117000000     5.540000000
H     4.135000000    -5.440000000     6.213000000
H     5.091000000    -6.002000000     5.183000000
O    -1.133000000    -5.239000000     4.872000000
H    -1.316000000    -5.475000000     3.962000000
H    -0.431000000    -4.591000000     4.814000000
O     5.543000000    -6.150000000     3.029000000
H     5.296000000    -5.563000000     2.315000000
H     5.128000000    -6.984000000     2.809000000
