201
-1238.81766
C    -1.478000000     0.939000000     4.903000000
H    -2.488000000     1.220000000     4.618000000
C    -0.375000000     1.438000000     4.212000000
C     0.915000000     1.126000000     4.663000000
H     1.792000000     1.494000000     4.135000000
C    -0.529000000     2.473000000     3.077000000
O    -1.739000000     3.129000000     3.147000000
H    -0.438000000     1.923000000     2.129000000
O     0.542000000     3.445000000     3.207000000
C     1.153000000     3.786000000     2.045000000
C     2.416000000     3.242000000     1.778000000
H     2.902000000     2.568000000     2.478000000
C     2.977000000     3.447000000     0.516000000
O     4.140000000     2.781000000     0.185000000
C     2.353000000     4.260000000    -0.466000000
C     2.909000000     4.393000000    -1.868000000
H     2.546000000     5.298000000    -2.359000000
C     2.515000000     3.213000000    -2.774000000
C     1.390000000     3.375000000    -3.601000000
H     0.915000000     4.346000000    -3.717000000
H     3.999000000     4.454000000    -1.839000000
C     1.186000000     4.929000000    -0.179000000
H     0.681000000     5.466000000    -0.977000000
C     0.551000000     4.595000000     1.034000000
C    -0.793000000     5.348000000     1.368000000
H    -0.850000000     6.305000000     0.845000000
H    -0.785000000     5.588000000     2.433000000
C    -1.929000000     4.409000000     1.085000000
C    -2.543000000     4.354000000    -0.176000000
H    -2.222000000     5.035000000    -0.961000000
C    -2.343000000     3.458000000     1.961000000
C    -3.349000000     2.541000000     1.708000000
H    -3.476000000     1.755000000     2.449000000
C    -3.950000000     2.541000000     0.468000000
O    -4.906000000     1.527000000     0.207000000
C    -4.285000000     0.412000000    -0.608000000
C    -4.773000000    -0.953000000    -0.041000000
C    -5.057000000    -2.014000000    -0.872000000
H    -5.254000000    -1.884000000    -1.933000000
C    -4.550000000    -1.163000000     1.359000000
H    -4.142000000    -0.413000000     2.032000000
O    -4.611000000     0.617000000    -2.011000000
H    -3.187000000     0.449000000    -0.569000000
C    -3.520000000     3.466000000    -0.504000000
C    -4.008000000     3.414000000    -1.880000000
H    -3.946000000     4.425000000    -2.287000000
H    -5.059000000     3.124000000    -1.939000000
C    -3.132000000     2.408000000    -2.724000000
C    -1.977000000     2.790000000    -3.466000000
H    -1.615000000     3.813000000    -3.517000000
C    -3.533000000     1.079000000    -2.787000000
C    -2.908000000     0.142000000    -3.578000000
H    -3.267000000    -0.882000000    -3.636000000
C    -1.881000000     0.552000000    -4.408000000
O    -1.166000000    -0.430000000    -5.056000000
C     0.089000000    -0.781000000    -4.407000000
C     0.315000000    -2.329000000    -4.276000000
C    -0.679000000    -3.301000000    -4.585000000
H    -1.597000000    -3.002000000    -5.085000000
C     1.500000000    -2.817000000    -3.685000000
H     2.338000000    -2.169000000    -3.440000000
O     1.209000000    -0.090000000    -4.971000000
H    -0.036000000    -0.539000000    -3.342000000
C    -1.400000000     1.837000000    -4.349000000
C    -0.241000000     2.335000000    -5.213000000
H    -0.476000000     3.307000000    -5.651000000
H    -0.162000000     1.705000000    -6.102000000
C     0.976000000     2.246000000    -4.354000000
C     1.681000000     1.041000000    -4.310000000
C     2.842000000     0.952000000    -3.550000000
H     3.281000000    -0.035000000    -3.427000000
C     3.186000000     1.976000000    -2.675000000
O     4.252000000     1.682000000    -1.840000000
C     4.005000000     1.461000000    -0.448000000
H     2.961000000     1.115000000    -0.453000000
C     4.833000000     0.401000000     0.301000000
C     5.283000000     0.555000000     1.619000000
H     4.942000000     1.473000000     2.091000000
C     5.338000000    -0.700000000    -0.427000000
H     5.090000000    -0.821000000    -1.478000000
C     6.074000000    -1.675000000     0.311000000
O     6.537000000    -2.818000000    -0.289000000
C     6.486000000    -1.448000000     1.624000000
H     7.033000000    -2.200000000     2.187000000
C     6.065000000    -0.310000000     2.336000000
O     6.373000000     0.007000000     3.636000000
C     5.588000000     0.656000000     4.585000000
C     4.336000000     0.099000000     4.917000000
H     4.078000000    -0.819000000     4.395000000
C     5.920000000     1.866000000     5.204000000
H     6.881000000     2.312000000     4.961000000
C     5.124000000     2.440000000     6.189000000
H     5.446000000     3.375000000     6.639000000
C     3.925000000     1.835000000     6.462000000
H     3.127000000     2.402000000     6.933000000
C     3.524000000     0.687000000     5.778000000
O     2.320000000     0.128000000     6.282000000
C     1.085000000     0.322000000     5.783000000
C    -0.024000000    -0.132000000     6.498000000
H    -0.002000000    -0.834000000     7.328000000
C    -1.285000000     0.051000000     5.956000000
O    -2.284000000    -0.625000000     6.594000000
C    -3.511000000    -0.935000000     6.073000000
C    -3.543000000    -1.829000000     5.049000000
H    -2.675000000    -2.452000000     4.851000000
C    -4.643000000    -0.292000000     6.392000000
H    -4.713000000     0.407000000     7.221000000
C    -5.812000000    -0.524000000     5.687000000
H    -6.679000000     0.080000000     5.943000000
C    -5.797000000    -1.342000000     4.543000000
H    -6.718000000    -1.486000000     3.985000000
C    -4.686000000    -2.003000000     4.234000000
O    -4.614000000    -2.842000000     3.172000000
C    -4.704000000    -2.488000000     1.811000000
C    -4.964000000    -3.528000000     0.937000000
H    -4.914000000    -4.571000000     1.238000000
C    -5.030000000    -3.346000000    -0.414000000
O    -5.334000000    -4.396000000    -1.213000000
C    -4.781000000    -4.429000000    -2.462000000
C    -3.444000000    -4.859000000    -2.672000000
H    -2.783000000    -5.200000000    -1.879000000
C    -5.701000000    -4.169000000    -3.553000000
H    -6.663000000    -3.667000000    -3.494000000
C    -5.195000000    -4.368000000    -4.822000000
H    -5.801000000    -4.089000000    -5.680000000
C    -3.942000000    -4.952000000    -5.035000000
H    -3.565000000    -5.027000000    -6.052000000
C    -3.042000000    -5.133000000    -3.993000000
O    -1.707000000    -5.436000000    -4.210000000
C    -0.644000000    -4.630000000    -4.070000000
C     0.557000000    -5.043000000    -3.544000000
H     0.590000000    -6.047000000    -3.129000000
C     1.583000000    -4.163000000    -3.196000000
O     2.604000000    -4.679000000    -2.423000000
C     3.938000000    -4.395000000    -2.479000000
C     4.764000000    -4.824000000    -3.542000000
H     4.266000000    -5.273000000    -4.398000000
C     6.123000000    -4.668000000    -3.558000000
H     6.638000000    -5.157000000    -4.381000000
C     6.660000000    -3.923000000    -2.517000000
H     7.744000000    -3.867000000    -2.463000000
C     5.913000000    -3.451000000    -1.427000000
C     4.540000000    -3.675000000    -1.452000000
H     3.991000000    -3.351000000    -0.572000000
O    -1.708000000    -4.928000000     1.445000000
H    -0.908000000    -5.209000000     1.001000000
H    -2.373000000    -5.554000000     1.156000000
O    -1.637000000    -8.586000000    -4.451000000
H    -2.194000000    -8.268000000    -5.162000000
H    -1.801000000    -7.978000000    -3.729000000
O    -1.034000000    -9.359000000     3.362000000
H    -0.193000000    -9.051000000     3.700000000
H    -1.660000000    -9.155000000     4.058000000
O     1.105000000   -10.465000000    -0.268000000
H     0.755000000    -9.576000000    -0.218000000
H     0.335000000   -11.019000000    -0.397000000
O    -0.509000000    -8.341000000    -0.536000000
H    -0.085000000    -7.501000000    -0.357000000
H    -1.225000000    -8.124000000    -1.133000000
O     3.608000000   -10.050000000    -1.788000000
H     4.241000000    -9.362000000    -1.991000000
H     2.987000000    -9.636000000    -1.189000000
O    -3.396000000    -6.978000000     0.436000000
H    -4.174000000    -6.546000000     0.083000000
H    -3.266000000    -7.737000000    -0.132000000
O     0.477000000    -2.937000000     4.074000000
H    -0.077000000    -2.251000000     3.701000000
H     1.341000000    -2.781000000     3.693000000
O    -1.966000000   -10.147000000     0.767000000
H    -1.732000000    -9.857000000     1.649000000
H    -1.584000000    -9.487000000     0.189000000
O     3.405000000    -8.395000000     2.011000000
H     2.765000000    -8.454000000     1.302000000
H     4.044000000    -9.080000000     1.814000000
O     3.444000000    -3.340000000     3.140000000
H     3.946000000    -2.826000000     2.507000000
H     3.636000000    -4.250000000     2.915000000
O     4.375000000    -5.621000000     1.620000000
H     3.679000000    -5.257000000     1.073000000
H     4.028000000    -6.461000000     1.922000000
O     0.906000000    -5.501000000     3.145000000
H     0.702000000    -4.586000000     3.340000000
H     1.375000000    -5.469000000     2.311000000
O     1.634000000    -8.802000000     4.121000000
H     2.315000000    -9.209000000     4.658000000
H     1.995000000    -8.803000000     3.235000000
O     2.513000000    -7.474000000    -0.840000000
H     3.040000000    -6.998000000    -1.482000000
H     1.810000000    -6.866000000    -0.610000000
O     7.059000000    -5.782000000     0.467000000
H     7.062000000    -6.116000000    -0.430000000
H     6.144000000    -5.839000000     0.741000000
O    -1.459000000    -2.042000000     2.285000000
H    -0.889000000    -2.086000000     1.517000000
H    -1.801000000    -2.931000000     2.382000000
O     3.307000000    -6.308000000     4.251000000
H     2.433000000    -6.033000000     3.975000000
H     3.510000000    -7.058000000     3.692000000
O    -1.596000000    -5.516000000     4.322000000
H    -0.757000000    -5.826000000     3.982000000
H    -1.945000000    -4.957000000     3.628000000
