201
-1234.94587
C    -1.190000000     1.206000000     5.174000000
H    -2.179000000     1.020000000     4.763000000
C    -0.283000000     2.021000000     4.495000000
C     1.037000000     2.013000000     5.004000000
H     1.848000000     2.565000000     4.536000000
C    -0.692000000     2.758000000     3.267000000
O    -2.053000000     3.186000000     3.318000000
H    -0.773000000     2.021000000     2.454000000
O     0.145000000     3.899000000     3.014000000
C     0.601000000     4.258000000     1.758000000
C     1.875000000     3.805000000     1.456000000
H     2.524000000     3.390000000     2.224000000
C     2.260000000     3.967000000     0.157000000
O     3.525000000     3.583000000    -0.237000000
C     1.396000000     4.442000000    -0.924000000
C     1.915000000     4.746000000    -2.342000000
H     1.390000000     5.618000000    -2.737000000
C     1.661000000     3.493000000    -3.197000000
C     0.380000000     3.318000000    -3.764000000
H    -0.424000000     4.048000000    -3.705000000
H     2.950000000     5.084000000    -2.415000000
C     0.109000000     4.870000000    -0.607000000
H    -0.465000000     5.387000000    -1.372000000
C    -0.281000000     4.721000000     0.749000000
C    -1.690000000     5.162000000     1.068000000
H    -1.994000000     6.035000000     0.488000000
H    -1.666000000     5.582000000     2.076000000
C    -2.713000000     3.999000000     1.091000000
C    -3.435000000     3.743000000    -0.042000000
H    -3.332000000     4.444000000    -0.866000000
C    -2.796000000     3.099000000     2.194000000
C    -3.438000000     1.848000000     2.059000000
H    -3.492000000     1.147000000     2.888000000
C    -4.099000000     1.594000000     0.882000000
O    -4.622000000     0.316000000     0.685000000
C    -3.940000000    -0.675000000    -0.097000000
C    -4.015000000    -2.045000000     0.630000000
C    -4.121000000    -3.254000000    -0.037000000
H    -4.303000000    -3.135000000    -1.102000000
C    -3.865000000    -2.089000000     2.016000000
H    -3.681000000    -1.209000000     2.627000000
O    -4.519000000    -0.715000000    -1.369000000
H    -2.892000000    -0.343000000    -0.079000000
C    -4.077000000     2.596000000    -0.172000000
C    -4.740000000     2.245000000    -1.448000000
H    -5.230000000     3.076000000    -1.959000000
H    -5.598000000     1.613000000    -1.210000000
C    -3.892000000     1.387000000    -2.359000000
C    -3.021000000     2.002000000    -3.252000000
H    -2.904000000     3.078000000    -3.359000000
C    -3.896000000    -0.020000000    -2.336000000
C    -3.161000000    -0.805000000    -3.206000000
H    -3.164000000    -1.892000000    -3.177000000
C    -2.340000000    -0.163000000    -4.106000000
O    -1.448000000    -1.032000000    -4.651000000
C    -0.146000000    -1.003000000    -4.219000000
C     0.449000000    -2.436000000    -4.102000000
C    -0.378000000    -3.556000000    -4.018000000
H    -1.452000000    -3.416000000    -3.928000000
C     1.858000000    -2.659000000    -4.034000000
H     2.463000000    -1.802000000    -4.319000000
O     0.780000000    -0.141000000    -4.958000000
H    -0.161000000    -0.600000000    -3.196000000
C    -2.238000000     1.220000000    -4.115000000
C    -1.305000000     1.872000000    -5.008000000
H    -1.661000000     2.848000000    -5.343000000
H    -1.231000000     1.270000000    -5.916000000
C     0.073000000     2.087000000    -4.409000000
C     1.005000000     1.081000000    -4.388000000
C     2.273000000     1.308000000    -3.882000000
H     2.984000000     0.487000000    -3.898000000
C     2.622000000     2.457000000    -3.262000000
O     3.720000000     2.496000000    -2.443000000
C     3.535000000     2.309000000    -0.976000000
H     2.604000000     1.737000000    -0.848000000
C     4.525000000     1.264000000    -0.380000000
C     4.500000000     0.927000000     0.979000000
H     3.850000000     1.507000000     1.629000000
C     5.322000000     0.496000000    -1.226000000
H     5.208000000     0.664000000    -2.294000000
C     6.123000000    -0.472000000    -0.692000000
O     6.762000000    -1.308000000    -1.504000000
C     6.147000000    -0.683000000     0.709000000
H     6.826000000    -1.473000000     1.019000000
C     5.367000000     0.018000000     1.571000000
O     5.398000000    -0.232000000     2.970000000
C     5.159000000     0.705000000     3.975000000
C     4.094000000     0.474000000     4.862000000
H     3.486000000    -0.420000000     4.747000000
C     6.050000000     1.720000000     4.317000000
H     6.906000000     1.880000000     3.665000000
C     5.770000000     2.638000000     5.313000000
H     6.475000000     3.422000000     5.575000000
C     4.643000000     2.486000000     6.173000000
H     4.448000000     3.175000000     6.991000000
C     3.748000000     1.446000000     5.866000000
O     2.571000000     1.210000000     6.682000000
C     1.294000000     1.212000000     6.128000000
C     0.333000000     0.575000000     6.883000000
H     0.540000000     0.117000000     7.847000000
C    -0.933000000     0.562000000     6.349000000
O    -1.940000000    -0.177000000     7.059000000
C    -3.036000000    -0.680000000     6.375000000
C    -2.863000000    -1.888000000     5.701000000
H    -1.924000000    -2.436000000     5.677000000
C    -4.265000000    -0.029000000     6.472000000
H    -4.397000000     0.918000000     6.988000000
C    -5.360000000    -0.567000000     5.813000000
H    -6.281000000     0.010000000     5.823000000
C    -5.259000000    -1.668000000     5.081000000
H    -6.053000000    -1.986000000     4.410000000
C    -3.981000000    -2.247000000     4.886000000
O    -3.804000000    -3.371000000     4.031000000
C    -3.834000000    -3.303000000     2.677000000
C    -3.864000000    -4.479000000     1.908000000
H    -3.799000000    -5.447000000     2.398000000
C    -4.019000000    -4.463000000     0.561000000
O    -3.992000000    -5.616000000    -0.111000000
C    -3.626000000    -5.746000000    -1.435000000
C    -2.306000000    -5.891000000    -1.826000000
H    -1.527000000    -5.982000000    -1.074000000
C    -4.689000000    -5.808000000    -2.344000000
H    -5.690000000    -5.699000000    -1.934000000
C    -4.434000000    -5.791000000    -3.685000000
H    -5.232000000    -5.701000000    -4.418000000
C    -3.084000000    -5.851000000    -4.196000000
H    -2.845000000    -5.725000000    -5.249000000
C    -2.044000000    -5.873000000    -3.219000000
O    -0.766000000    -5.954000000    -3.754000000
C     0.079000000    -4.830000000    -3.742000000
C     1.444000000    -5.042000000    -3.590000000
H     1.784000000    -6.066000000    -3.462000000
C     2.304000000    -3.957000000    -3.726000000
O     3.709000000    -4.184000000    -3.730000000
C     4.769000000    -3.296000000    -3.775000000
C     5.208000000    -2.917000000    -5.012000000
H     4.701000000    -3.212000000    -5.927000000
C     6.223000000    -2.001000000    -5.028000000
H     6.453000000    -1.619000000    -6.019000000
C     6.797000000    -1.441000000    -3.855000000
H     7.413000000    -0.545000000    -3.838000000
C     6.213000000    -1.838000000    -2.659000000
C     5.269000000    -2.864000000    -2.564000000
H     4.994000000    -3.191000000    -1.564000000
O    -0.042000000    -4.730000000     0.712000000
H     0.254000000    -4.275000000     1.500000000
H    -0.964000000    -4.485000000     0.626000000
O     4.523000000    -3.568000000     6.258000000
H     5.162000000    -3.481000000     5.550000000
H     3.701000000    -3.258000000     5.878000000
O     2.470000000    -5.602000000    -0.538000000
H     1.601000000    -5.319000000    -0.251000000
H     3.077000000    -5.079000000    -0.014000000
O     6.138000000    -5.282000000     0.766000000
H     6.087000000    -5.636000000    -0.123000000
H     5.392000000    -4.687000000     0.830000000
O     3.276000000    -9.006000000     3.327000000
H     4.205000000    -9.240000000     3.329000000
H     3.243000000    -8.160000000     2.882000000
O     7.920000000    -5.086000000     5.981000000
H     7.484000000    -4.945000000     5.140000000
H     8.796000000    -4.719000000     5.860000000
O     1.845000000    -8.247000000    -1.440000000
H     2.217000000    -7.376000000    -1.302000000
H     2.086000000    -8.470000000    -2.340000000
O     3.305000000    -7.482000000     5.979000000
H     3.400000000    -6.859000000     6.698000000
H     4.158000000    -7.478000000     5.544000000
O     5.457000000    -6.374000000    -3.438000000
H     5.098000000    -6.632000000    -4.287000000
H     4.778000000    -5.824000000    -3.048000000
O     9.066000000    -4.666000000     0.586000000
H     8.160000000    -4.821000000     0.854000000
H     9.100000000    -4.957000000    -0.325000000
O     2.060000000    -3.566000000     4.954000000
H     2.759000000    -3.583000000     4.300000000
H     1.621000000    -4.411000000     4.856000000
O     0.448000000    -5.788000000     4.475000000
H     0.784000000    -6.124000000     3.644000000
H     0.306000000    -6.570000000     5.010000000
O     6.269000000    -5.101000000     3.813000000
H     6.537000000    -5.538000000     3.004000000
H     5.900000000    -4.267000000     3.523000000
O     2.298000000    -6.588000000     2.119000000
H     2.135000000    -6.758000000     1.191000000
H     2.949000000    -5.886000000     2.123000000
O     6.586000000    -2.142000000     4.443000000
H     7.537000000    -2.053000000     4.386000000
H     6.251000000    -1.604000000     3.726000000
O     7.389000000    -6.320000000    -1.601000000
H     7.909000000    -5.579000000    -1.912000000
H     6.598000000    -6.300000000    -2.139000000
O     6.866000000    -1.190000000     7.047000000
H     6.828000000    -1.890000000     7.699000000
H     6.227000000    -1.448000000     6.382000000
O    -0.209000000    -2.468000000     3.267000000
H     0.491000000    -2.717000000     3.871000000
H     0.195000000    -1.825000000     2.685000000
O     5.786000000    -7.344000000     5.135000000
H     5.942000000    -6.559000000     4.610000000
H     6.091000000    -8.065000000     4.584000000
