201
-1247.71439
C    -0.935000000     0.481000000     4.578000000
H    -1.838000000     0.080000000     4.127000000
C    -0.431000000     1.773000000     4.182000000
C     0.801000000     2.208000000     4.713000000
H     1.223000000     3.189000000     4.512000000
C    -1.179000000     2.614000000     3.186000000
O    -2.611000000     2.459000000     3.202000000
H    -0.874000000     2.246000000     2.195000000
O    -0.908000000     4.067000000     3.317000000
C    -0.635000000     4.575000000     2.054000000
C     0.694000000     4.529000000     1.747000000
H     1.432000000     4.300000000     2.511000000
C     1.131000000     4.702000000     0.423000000
O     2.458000000     4.322000000     0.153000000
C     0.220000000     4.983000000    -0.633000000
C     0.621000000     5.137000000    -2.127000000
H    -0.016000000     5.830000000    -2.680000000
C     0.752000000     3.806000000    -2.802000000
C    -0.345000000     3.401000000    -3.585000000
H    -1.249000000     4.006000000    -3.590000000
H     1.624000000     5.564000000    -2.187000000
C    -1.095000000     5.116000000    -0.277000000
H    -1.782000000     5.373000000    -1.078000000
C    -1.588000000     4.870000000     1.047000000
C    -3.019000000     4.635000000     1.308000000
H    -3.744000000     5.275000000     0.802000000
H    -3.134000000     5.024000000     2.321000000
C    -3.428000000     3.134000000     1.103000000
C    -4.110000000     2.759000000    -0.115000000
H    -4.334000000     3.382000000    -0.977000000
C    -3.282000000     2.088000000     2.085000000
C    -3.642000000     0.827000000     1.896000000
H    -3.477000000     0.004000000     2.587000000
C    -4.350000000     0.517000000     0.693000000
O    -4.828000000    -0.765000000     0.596000000
C    -4.064000000    -1.712000000    -0.191000000
C    -3.910000000    -3.119000000     0.390000000
C    -3.836000000    -4.215000000    -0.472000000
H    -3.820000000    -4.232000000    -1.559000000
C    -3.828000000    -3.297000000     1.761000000
H    -3.829000000    -2.452000000     2.445000000
O    -4.547000000    -1.743000000    -1.640000000
H    -3.041000000    -1.311000000    -0.245000000
C    -4.591000000     1.437000000    -0.276000000
C    -5.272000000     1.084000000    -1.548000000
H    -5.677000000     2.032000000    -1.908000000
H    -6.072000000     0.366000000    -1.359000000
C    -4.215000000     0.497000000    -2.468000000
C    -3.571000000     1.349000000    -3.412000000
H    -3.671000000     2.423000000    -3.281000000
C    -3.893000000    -0.863000000    -2.476000000
C    -2.981000000    -1.390000000    -3.385000000
H    -2.634000000    -2.419000000    -3.336000000
C    -2.207000000    -0.496000000    -4.120000000
O    -1.085000000    -0.964000000    -4.829000000
C     0.230000000    -0.816000000    -4.255000000
C     0.980000000    -2.086000000    -4.247000000
C     0.319000000    -3.307000000    -3.989000000
H    -0.732000000    -3.311000000    -3.711000000
C     2.354000000    -2.111000000    -4.446000000
H     2.859000000    -1.149000000    -4.477000000
O     0.906000000     0.195000000    -4.883000000
H     0.127000000    -0.547000000    -3.193000000
C    -2.503000000     0.875000000    -4.204000000
C    -1.607000000     1.747000000    -5.045000000
H    -2.003000000     2.709000000    -5.377000000
H    -1.276000000     1.192000000    -5.925000000
C    -0.365000000     2.179000000    -4.288000000
C     0.825000000     1.422000000    -4.244000000
C     1.946000000     1.878000000    -3.526000000
H     2.855000000     1.283000000    -3.538000000
C     1.878000000     3.025000000    -2.789000000
O     2.944000000     3.291000000    -1.943000000
C     2.661000000     3.096000000    -0.526000000
H     1.682000000     2.601000000    -0.444000000
C     3.790000000     2.281000000     0.083000000
C     4.248000000     2.539000000     1.403000000
H     3.872000000     3.423000000     1.912000000
C     4.384000000     1.165000000    -0.595000000
H     4.012000000     0.816000000    -1.555000000
C     5.427000000     0.470000000    -0.013000000
O     5.968000000    -0.636000000    -0.646000000
C     5.900000000     0.813000000     1.245000000
H     6.739000000     0.213000000     1.587000000
C     5.359000000     1.860000000     1.910000000
O     6.054000000     2.188000000     3.065000000
C     5.444000000     2.700000000     4.179000000
C     4.309000000     2.054000000     4.677000000
H     4.117000000     1.006000000     4.462000000
C     5.846000000     3.948000000     4.678000000
H     6.730000000     4.371000000     4.208000000
C     5.197000000     4.495000000     5.803000000
H     5.514000000     5.464000000     6.180000000
C     4.088000000     3.823000000     6.343000000
H     3.634000000     4.190000000     7.260000000
C     3.652000000     2.611000000     5.850000000
O     2.568000000     1.909000000     6.343000000
C     1.384000000     1.451000000     5.753000000
C     0.938000000     0.178000000     6.139000000
H     1.464000000    -0.305000000     6.959000000
C    -0.270000000    -0.294000000     5.601000000
O    -0.821000000    -1.507000000     6.032000000
C    -1.988000000    -2.195000000     5.778000000
C    -2.044000000    -3.092000000     4.655000000
H    -1.237000000    -3.043000000     3.928000000
C    -3.003000000    -2.144000000     6.751000000
H    -2.911000000    -1.390000000     7.528000000
C    -3.957000000    -3.149000000     6.732000000
H    -4.733000000    -3.115000000     7.492000000
C    -4.038000000    -4.055000000     5.664000000
H    -4.796000000    -4.830000000     5.731000000
C    -3.138000000    -3.967000000     4.562000000
O    -3.200000000    -4.861000000     3.539000000
C    -3.390000000    -4.544000000     2.247000000
C    -3.176000000    -5.604000000     1.392000000
H    -2.799000000    -6.513000000     1.853000000
C    -3.510000000    -5.437000000     0.040000000
O    -3.348000000    -6.471000000    -0.799000000
C    -2.793000000    -6.332000000    -2.063000000
C    -1.438000000    -6.040000000    -2.238000000
H    -0.756000000    -5.851000000    -1.413000000
C    -3.656000000    -6.322000000    -3.166000000
H    -4.731000000    -6.471000000    -3.117000000
C    -3.105000000    -6.129000000    -4.437000000
H    -3.663000000    -6.087000000    -5.369000000
C    -1.724000000    -5.931000000    -4.617000000
H    -1.299000000    -5.687000000    -5.587000000
C    -0.930000000    -5.920000000    -3.470000000
O     0.471000000    -5.708000000    -3.669000000
C     1.043000000    -4.505000000    -3.882000000
C     2.433000000    -4.524000000    -3.959000000
H     3.041000000    -5.414000000    -3.822000000
C     3.086000000    -3.283000000    -4.173000000
O     4.485000000    -3.258000000    -4.107000000
C     5.168000000    -2.124000000    -3.788000000
C     5.667000000    -1.218000000    -4.724000000
H     5.652000000    -1.455000000    -5.784000000
C     6.397000000    -0.077000000    -4.297000000
H     6.789000000     0.650000000    -5.004000000
C     6.573000000    -0.001000000    -2.888000000
H     7.158000000     0.847000000    -2.542000000
C     5.952000000    -0.855000000    -1.979000000
C     5.416000000    -1.995000000    -2.429000000
H     4.997000000    -2.729000000    -1.745000000
O     5.465000000    -1.511000000     6.878000000
H     5.309000000    -1.581000000     7.820000000
H     4.746000000    -2.000000000     6.479000000
O     6.328000000    -6.599000000    -0.370000000
H     6.084000000    -7.361000000     0.155000000
H     5.626000000    -5.967000000    -0.215000000
O     7.480000000    -1.871000000     4.038000000
H     6.745000000    -1.818000000     3.427000000
H     7.570000000    -2.805000000     4.225000000
O     5.136000000    -3.974000000     4.372000000
H     4.250000000    -3.613000000     4.389000000
H     5.481000000    -3.723000000     3.515000000
O    -0.646000000    -6.138000000     7.470000000
H    -1.126000000    -6.776000000     7.999000000
H     0.085000000    -5.869000000     8.026000000
O    -0.718000000    -6.712000000     4.691000000
H    -0.685000000    -6.470000000     5.617000000
H    -1.633000000    -6.944000000     4.536000000
O     2.621000000    -2.950000000     6.479000000
H     2.497000000    -2.805000000     5.541000000
H     1.849000000    -3.448000000     6.748000000
O     3.554000000    -5.441000000     6.871000000
H     3.829000000    -4.524000000     6.894000000
H     2.896000000    -5.477000000     6.177000000
O     6.779000000    -6.122000000     3.924000000
H     6.368000000    -6.663000000     3.250000000
H     6.140000000    -5.432000000     4.102000000
O    -0.191000000    -8.843000000     0.952000000
H     0.107000000    -7.983000000     1.248000000
H    -0.595000000    -9.236000000     1.726000000
O     0.322000000    -6.565000000     2.244000000
H     0.810000000    -5.786000000     2.509000000
H    -0.258000000    -6.748000000     2.983000000
O     3.153000000    -7.338000000     3.422000000
H     2.939000000    -8.180000000     3.826000000
H     2.661000000    -6.696000000     3.934000000
O     5.243000000    -2.001000000     2.329000000
H     5.004000000    -1.706000000     1.451000000
H     4.408000000    -2.087000000     2.789000000
O     1.659000000    -5.349000000     5.006000000
H     1.848000000    -4.806000000     4.241000000
H     0.853000000    -5.813000000     4.778000000
O     7.567000000     0.021000000     5.958000000
H     7.729000000    -0.615000000     5.261000000
H     6.734000000    -0.252000000     6.343000000
O     5.623000000    -8.056000000     2.232000000
H     4.804000000    -7.977000000     2.721000000
H     5.810000000    -8.995000000     2.230000000
O     3.396000000    -5.844000000     0.738000000
H     3.511000000    -6.635000000     1.265000000
H     2.865000000    -5.266000000     1.286000000
O     2.245000000    -5.227000000     9.578000000
H     3.021000000    -4.976000000    10.079000000
H     2.591000000    -5.542000000     8.743000000
O     5.915000000    -6.920000000     6.315000000
H     6.260000000    -6.753000000     5.438000000
H     5.251000000    -6.243000000     6.444000000
