201
-1251.79814
C    -0.018000000    -0.233000000     5.086000000
H    -1.056000000    -0.537000000     4.979000000
C     0.377000000     1.020000000     4.525000000
C     1.714000000     1.455000000     4.756000000
H     2.058000000     2.401000000     4.347000000
C    -0.616000000     1.824000000     3.727000000
O    -1.943000000     1.706000000     4.278000000
H    -0.572000000     1.336000000     2.743000000
O    -0.200000000     3.192000000     3.705000000
C    -0.244000000     3.861000000     2.461000000
C     0.965000000     4.010000000     1.813000000
H     1.898000000     3.776000000     2.320000000
C     0.964000000     4.545000000     0.479000000
O     2.149000000     4.576000000    -0.129000000
C    -0.220000000     4.734000000    -0.223000000
C    -0.248000000     5.265000000    -1.697000000
H    -1.106000000     5.935000000    -1.784000000
C    -0.397000000     4.002000000    -2.529000000
C    -1.569000000     3.588000000    -3.119000000
H    -2.448000000     4.156000000    -2.824000000
H     0.644000000     5.843000000    -1.947000000
C    -1.394000000     4.635000000     0.451000000
H    -2.353000000     4.767000000    -0.044000000
C    -1.409000000     4.193000000     1.813000000
C    -2.746000000     3.995000000     2.547000000
H    -3.550000000     4.668000000     2.242000000
H    -2.566000000     4.177000000     3.608000000
C    -3.325000000     2.626000000     2.417000000
C    -4.242000000     2.336000000     1.393000000
H    -4.675000000     3.147000000     0.813000000
C    -2.889000000     1.560000000     3.253000000
C    -3.456000000     0.303000000     3.052000000
H    -3.090000000    -0.455000000     3.739000000
C    -4.202000000     0.018000000     1.892000000
O    -4.514000000    -1.329000000     1.637000000
C    -3.786000000    -2.013000000     0.619000000
C    -3.358000000    -3.459000000     1.131000000
C    -3.039000000    -4.466000000     0.224000000
H    -3.225000000    -4.261000000    -0.827000000
C    -3.227000000    -3.778000000     2.461000000
H    -3.543000000    -3.109000000     3.258000000
O    -4.541000000    -2.011000000    -0.613000000
H    -2.822000000    -1.525000000     0.414000000
C    -4.648000000     1.024000000     1.055000000
C    -5.525000000     0.747000000    -0.163000000
H    -6.084000000     1.613000000    -0.524000000
H    -6.314000000     0.000000000    -0.055000000
C    -4.696000000     0.301000000    -1.389000000
C    -4.413000000     1.226000000    -2.415000000
H    -4.849000000     2.217000000    -2.323000000
C    -4.209000000    -0.999000000    -1.484000000
C    -3.457000000    -1.346000000    -2.573000000
H    -3.195000000    -2.393000000    -2.702000000
C    -3.139000000    -0.438000000    -3.538000000
O    -2.179000000    -0.849000000    -4.550000000
C    -0.819000000    -0.441000000    -4.289000000
C     0.189000000    -1.555000000    -4.624000000
C    -0.158000000    -2.834000000    -4.250000000
H    -1.127000000    -3.024000000    -3.796000000
C     1.476000000    -1.286000000    -5.000000000
H     1.703000000    -0.263000000    -5.289000000
O    -0.553000000     0.755000000    -5.032000000
H    -0.801000000    -0.318000000    -3.196000000
C    -3.515000000     0.907000000    -3.414000000
C    -3.041000000     1.971000000    -4.372000000
H    -3.839000000     2.711000000    -4.459000000
H    -3.002000000     1.499000000    -5.356000000
C    -1.668000000     2.516000000    -3.981000000
C    -0.514000000     1.886000000    -4.265000000
C     0.723000000     2.214000000    -3.693000000
H     1.510000000     1.581000000    -4.094000000
C     0.781000000     3.302000000    -2.795000000
O     1.966000000     3.810000000    -2.357000000
C     2.376000000     3.440000000    -0.988000000
H     1.631000000     2.655000000    -0.796000000
C     3.754000000     2.725000000    -0.912000000
C     4.487000000     2.753000000     0.272000000
H     4.097000000     3.220000000     1.173000000
C     4.312000000     2.033000000    -1.984000000
H     3.660000000     1.820000000    -2.827000000
C     5.516000000     1.438000000    -1.852000000
O     6.155000000     0.885000000    -2.961000000
C     6.301000000     1.536000000    -0.720000000
H     7.259000000     1.037000000    -0.604000000
C     5.736000000     2.122000000     0.412000000
O     6.460000000     2.053000000     1.576000000
C     5.914000000     2.405000000     2.855000000
C     5.135000000     1.523000000     3.588000000
H     4.768000000     0.588000000     3.173000000
C     6.276000000     3.658000000     3.440000000
H     6.821000000     4.345000000     2.798000000
C     5.830000000     3.937000000     4.724000000
H     6.058000000     4.864000000     5.243000000
C     5.121000000     3.003000000     5.456000000
H     4.709000000     3.261000000     6.428000000
C     4.753000000     1.778000000     4.927000000
O     3.946000000     0.951000000     5.640000000
C     2.600000000     0.659000000     5.517000000
C     2.248000000    -0.613000000     5.941000000
H     2.881000000    -1.275000000     6.526000000
C     0.945000000    -1.047000000     5.709000000
O     0.572000000    -2.256000000     6.319000000
C    -0.648000000    -2.807000000     6.287000000
C    -1.070000000    -3.558000000     5.223000000
H    -0.406000000    -3.768000000     4.387000000
C    -1.517000000    -2.603000000     7.393000000
H    -1.247000000    -1.873000000     8.152000000
C    -2.745000000    -3.317000000     7.424000000
H    -3.378000000    -3.243000000     8.304000000
C    -3.091000000    -4.119000000     6.393000000
H    -4.054000000    -4.620000000     6.326000000
C    -2.336000000    -4.083000000     5.182000000
O    -2.498000000    -5.184000000     4.278000000
C    -2.641000000    -4.978000000     2.923000000
C    -2.194000000    -5.911000000     1.943000000
H    -1.639000000    -6.764000000     2.323000000
C    -2.439000000    -5.644000000     0.620000000
O    -2.041000000    -6.556000000    -0.397000000
C    -2.010000000    -6.189000000    -1.778000000
C    -0.797000000    -5.874000000    -2.279000000
H     0.070000000    -5.951000000    -1.629000000
C    -3.111000000    -6.330000000    -2.561000000
H    -4.056000000    -6.583000000    -2.089000000
C    -3.041000000    -5.990000000    -3.925000000
H    -3.916000000    -5.840000000    -4.552000000
C    -1.797000000    -5.682000000    -4.516000000
H    -1.655000000    -5.486000000    -5.576000000
C    -0.712000000    -5.559000000    -3.661000000
O     0.494000000    -5.159000000    -4.139000000
C     0.747000000    -3.877000000    -4.462000000
C     2.030000000    -3.581000000    -4.893000000
H     2.857000000    -4.279000000    -4.794000000
C     2.383000000    -2.309000000    -5.262000000
O     3.636000000    -2.129000000    -5.685000000
C     4.207000000    -0.877000000    -5.461000000
C     4.209000000     0.071000000    -6.508000000
H     3.614000000    -0.215000000    -7.371000000
C     4.694000000     1.353000000    -6.304000000
H     4.483000000     2.155000000    -7.006000000
C     5.430000000     1.638000000    -5.159000000
H     5.991000000     2.535000000    -4.909000000
C     5.475000000     0.627000000    -4.121000000
C     4.799000000    -0.583000000    -4.219000000
H     4.750000000    -1.355000000    -3.455000000
O     8.002000000    -0.733000000     1.737000000
H     8.025000000    -1.099000000     2.621000000
H     7.606000000    -1.421000000     1.203000000
O     8.339000000    -0.906000000    -4.645000000
H     7.584000000    -1.202000000    -5.154000000
H     8.118000000    -1.124000000    -3.740000000
O     8.264000000    -1.563000000    -1.811000000
H     8.816000000    -2.337000000    -1.695000000
H     7.506000000    -1.723000000    -1.248000000
O     6.546000000    -4.411000000    -6.389000000
H     6.856000000    -3.614000000    -6.820000000
H     6.509000000    -4.182000000    -5.460000000
O     5.345000000    -2.991000000     2.572000000
H     5.756000000    -2.712000000     3.391000000
H     5.921000000    -2.650000000     1.887000000
O     9.460000000    -4.007000000    -2.204000000
H    10.149000000    -4.027000000    -2.868000000
H     9.701000000    -4.699000000    -1.589000000
O     3.082000000    -7.128000000     0.941000000
H     3.301000000    -7.259000000     0.019000000
H     3.903000000    -6.842000000     1.343000000
O     2.536000000    -2.870000000     2.056000000
H     3.396000000    -2.544000000     2.319000000
H     2.312000000    -2.357000000     1.279000000
O     7.592000000    -7.432000000    -2.477000000
H     7.478000000    -6.869000000    -1.712000000
H     7.880000000    -6.838000000    -3.170000000
O     9.268000000     1.512000000     2.229000000
H     8.431000000     1.972000000     2.288000000
H     9.031000000     0.609000000     2.020000000
O     5.083000000    -6.059000000     2.555000000
H     4.892000000    -6.293000000     3.463000000
H     4.924000000    -5.116000000     2.513000000
O     7.391000000    -1.570000000     4.135000000
H     6.933000000    -0.856000000     4.578000000
H     7.880000000    -2.009000000     4.830000000
O     8.311000000    -4.373000000     1.160000000
H     7.431000000    -4.081000000     0.919000000
H     8.897000000    -3.764000000     0.710000000
O     4.953000000    -6.398000000    -3.218000000
H     5.746000000    -6.911000000    -3.063000000
H     5.158000000    -5.530000000    -2.870000000
O     9.954000000     1.490000000    -2.685000000
H     9.395000000     0.731000000    -2.519000000
H    10.235000000     1.775000000    -1.815000000
O     6.642000000    -3.782000000    -3.685000000
H     7.545000000    -3.878000000    -3.382000000
H     6.139000000    -3.608000000    -2.889000000
O     0.820000000    -5.269000000     1.828000000
H     1.305000000    -4.444000000     1.821000000
H     1.380000000    -5.881000000     1.350000000
O     6.340000000    -6.101000000    -0.562000000
H     6.276000000    -6.323000000     0.367000000
H     6.010000000    -5.204000000    -0.617000000
O    11.189000000    -2.280000000     0.245000000
H    10.942000000    -1.947000000    -0.618000000
H    11.918000000    -1.723000000     0.517000000
