201
-1235.60515
C    -0.630000000    -1.820000000     5.130000000
H    -1.675000000    -2.032000000     5.340000000
C    -0.139000000    -0.641000000     4.498000000
C     1.231000000    -0.507000000     4.371000000
H     1.530000000     0.386000000     3.829000000
C    -1.012000000     0.550000000     4.016000000
O    -2.425000000     0.414000000     4.422000000
H    -1.067000000     0.517000000     2.918000000
O    -0.441000000     1.890000000     4.460000000
C    -0.580000000     2.967000000     3.558000000
C     0.592000000     3.428000000     2.983000000
H     1.583000000     3.185000000     3.358000000
C     0.599000000     4.341000000     1.952000000
O     1.846000000     4.614000000     1.396000000
C    -0.585000000     4.747000000     1.365000000
C    -0.542000000     5.697000000     0.157000000
H    -1.386000000     6.387000000     0.086000000
C    -0.366000000     4.951000000    -1.148000000
C    -1.517000000     4.560000000    -1.866000000
H    -2.490000000     4.949000000    -1.577000000
H     0.352000000     6.320000000     0.220000000
C    -1.838000000     4.286000000     1.892000000
H    -2.820000000     4.540000000     1.502000000
C    -1.795000000     3.397000000     2.989000000
C    -3.158000000     3.018000000     3.542000000
H    -3.824000000     3.787000000     3.144000000
H    -3.205000000     3.098000000     4.630000000
C    -3.660000000     1.738000000     2.908000000
C    -4.299000000     1.723000000     1.723000000
H    -4.520000000     2.682000000     1.261000000
C    -3.303000000     0.475000000     3.383000000
C    -3.584000000    -0.733000000     2.705000000
H    -3.210000000    -1.664000000     3.122000000
C    -4.352000000    -0.735000000     1.550000000
O    -4.567000000    -1.949000000     0.872000000
C    -3.599000000    -2.211000000    -0.173000000
C    -3.140000000    -3.682000000    -0.207000000
C    -2.727000000    -4.246000000    -1.426000000
H    -2.793000000    -3.644000000    -2.328000000
C    -2.950000000    -4.415000000     0.966000000
H    -3.382000000    -3.986000000     1.866000000
O    -4.152000000    -1.762000000    -1.448000000
H    -2.694000000    -1.601000000    -0.036000000
C    -4.666000000     0.562000000     1.005000000
C    -5.488000000     0.663000000    -0.296000000
H    -6.196000000     1.494000000    -0.258000000
H    -6.108000000    -0.235000000    -0.346000000
C    -4.486000000     0.696000000    -1.464000000
C    -4.184000000     1.948000000    -2.038000000
H    -4.663000000     2.841000000    -1.646000000
C    -3.880000000    -0.478000000    -1.930000000
C    -3.015000000    -0.451000000    -2.929000000
H    -2.482000000    -1.370000000    -3.154000000
C    -2.670000000     0.776000000    -3.452000000
O    -1.650000000     0.780000000    -4.326000000
C    -0.313000000     0.941000000    -3.862000000
C     0.619000000    -0.104000000    -4.334000000
C     0.198000000    -1.293000000    -4.941000000
H    -0.836000000    -1.524000000    -5.181000000
C     1.989000000     0.066000000    -4.008000000
H     2.396000000     0.997000000    -3.622000000
O     0.087000000     2.266000000    -4.269000000
H    -0.396000000     1.073000000    -2.773000000
C    -3.214000000     1.965000000    -3.009000000
C    -2.798000000     3.252000000    -3.577000000
H    -3.577000000     4.013000000    -3.502000000
H    -2.644000000     3.069000000    -4.643000000
C    -1.464000000     3.716000000    -2.993000000
C    -0.145000000     3.317000000    -3.441000000
C     1.030000000     3.739000000    -2.734000000
H     2.021000000     3.446000000    -3.072000000
C     0.887000000     4.482000000    -1.579000000
O     2.021000000     4.723000000    -0.863000000
C     2.314000000     3.866000000     0.219000000
H     1.713000000     2.956000000     0.075000000
C     3.744000000     3.436000000     0.243000000
C     4.262000000     2.930000000     1.394000000
H     3.559000000     2.844000000     2.219000000
C     4.553000000     3.464000000    -0.908000000
H     4.154000000     3.846000000    -1.844000000
C     5.882000000     2.907000000    -0.896000000
O     6.615000000     2.702000000    -2.018000000
C     6.442000000     2.510000000     0.323000000
H     7.501000000     2.277000000     0.406000000
C     5.625000000     2.577000000     1.441000000
O     6.132000000     2.140000000     2.627000000
C     5.347000000     1.783000000     3.653000000
C     4.877000000     0.452000000     3.681000000
H     5.306000000    -0.266000000     2.988000000
C     4.964000000     2.693000000     4.618000000
H     5.361000000     3.705000000     4.621000000
C     4.246000000     2.214000000     5.745000000
H     4.083000000     2.795000000     6.649000000
C     3.705000000     0.906000000     5.783000000
H     2.959000000     0.566000000     6.497000000
C     4.019000000     0.015000000     4.690000000
O     3.482000000    -1.250000000     4.595000000
C     2.165000000    -1.437000000     4.838000000
C     1.701000000    -2.619000000     5.419000000
H     2.339000000    -3.467000000     5.653000000
C     0.333000000    -2.803000000     5.570000000
O    -0.107000000    -4.028000000     5.962000000
C    -1.092000000    -4.772000000     5.417000000
C    -0.936000000    -5.161000000     4.032000000
H    -0.002000000    -5.099000000     3.480000000
C    -2.361000000    -4.816000000     5.981000000
H    -2.582000000    -4.438000000     6.975000000
C    -3.406000000    -5.471000000     5.303000000
H    -4.433000000    -5.553000000     5.649000000
C    -3.159000000    -5.888000000     3.985000000
H    -4.007000000    -6.371000000     3.506000000
C    -2.001000000    -5.648000000     3.315000000
O    -1.861000000    -6.172000000     2.053000000
C    -2.286000000    -5.639000000     0.904000000
C    -2.009000000    -6.246000000    -0.344000000
H    -1.539000000    -7.226000000    -0.378000000
C    -2.195000000    -5.553000000    -1.505000000
O    -1.727000000    -6.157000000    -2.635000000
C    -1.699000000    -5.444000000    -3.841000000
C    -0.581000000    -4.707000000    -4.208000000
H     0.326000000    -4.710000000    -3.609000000
C    -2.755000000    -5.588000000    -4.736000000
H    -3.526000000    -6.308000000    -4.473000000
C    -2.713000000    -5.012000000    -5.981000000
H    -3.573000000    -5.236000000    -6.607000000
C    -1.568000000    -4.273000000    -6.319000000
H    -1.528000000    -3.990000000    -7.367000000
C    -0.497000000    -4.099000000    -5.460000000
O     0.621000000    -3.451000000    -5.888000000
C     1.103000000    -2.247000000    -5.379000000
C     2.457000000    -2.083000000    -5.083000000
H     3.124000000    -2.911000000    -5.308000000
C     2.882000000    -0.973000000    -4.352000000
O     4.246000000    -0.815000000    -4.119000000
C     4.828000000     0.376000000    -4.202000000
C     5.114000000     0.839000000    -5.500000000
H     4.743000000     0.291000000    -6.363000000
C     5.784000000     2.055000000    -5.668000000
H     5.923000000     2.458000000    -6.667000000
C     6.293000000     2.690000000    -4.529000000
H     6.901000000     3.590000000    -4.571000000
C     6.136000000     2.132000000    -3.219000000
C     5.358000000     0.993000000    -3.079000000
H     5.225000000     0.541000000    -2.099000000
O     5.757000000    -2.385000000    -6.036000000
H     4.859000000    -2.078000000    -6.158000000
H     5.697000000    -3.029000000    -5.330000000
O     5.771000000    -2.327000000    -1.058000000
H     5.578000000    -2.597000000    -1.955000000
H     4.988000000    -2.565000000    -0.562000000
O     1.723000000    -7.977000000    -0.757000000
H     2.606000000    -7.672000000    -0.967000000
H     1.230000000    -7.177000000    -0.573000000
O     6.570000000    -6.627000000     0.450000000
H     7.095000000    -6.676000000    -0.348000000
H     7.210000000    -6.506000000     1.151000000
O     6.486000000    -6.184000000    -3.721000000
H     6.888000000    -6.060000000    -4.580000000
H     5.716000000    -6.726000000    -3.893000000
O     4.374000000    -3.576000000     3.425000000
H     3.840000000    -2.913000000     3.863000000
H     4.266000000    -3.391000000     2.492000000
O     1.877000000    -7.326000000     3.226000000
H     2.549000000    -7.237000000     2.549000000
H     2.287000000    -6.980000000     4.018000000
O     3.805000000    -5.836000000     4.986000000
H     3.860000000    -5.117000000     4.357000000
H     4.513000000    -6.429000000     4.734000000
O     4.111000000    -9.093000000     2.699000000
H     3.871000000    -9.113000000     3.626000000
H     4.575000000    -8.263000000     2.590000000
O     1.069000000    -5.255000000    -0.076000000
H     0.431000000    -4.554000000     0.057000000
H     1.864000000    -4.805000000    -0.363000000
O     7.964000000    -0.386000000    -0.691000000
H     7.207000000    -0.886000000    -0.996000000
H     8.622000000    -0.505000000    -1.377000000
O     6.641000000    -3.288000000     1.492000000
H     5.726000000    -3.423000000     1.737000000
H     6.601000000    -2.728000000     0.717000000
O     2.199000000    -6.577000000    -3.463000000
H     2.920000000    -6.774000000    -4.061000000
H     2.628000000    -6.299000000    -2.654000000
O     6.356000000    -4.176000000     5.885000000
H     6.842000000    -4.925000000     5.541000000
H     5.571000000    -4.128000000     5.340000000
O     8.195000000    -6.708000000    -1.646000000
H     7.968000000    -6.564000000    -2.565000000
H     8.842000000    -6.029000000    -1.450000000
O     4.986000000    -3.864000000    -3.299000000
H     5.644000000    -4.526000000    -3.088000000
H     4.354000000    -3.917000000    -2.583000000
O     8.332000000    -5.237000000     2.342000000
H     8.083000000    -5.052000000     3.247000000
H     8.051000000    -4.463000000     1.853000000
O     4.148000000    -6.563000000    -1.272000000
H     5.092000000    -6.572000000    -1.111000000
H     3.850000000    -5.733000000    -0.899000000
O     4.175000000    -6.114000000     1.964000000
H     4.135000000    -5.205000000     1.667000000
H     4.850000000    -6.515000000     1.417000000
