201
-1213.50328
C    -0.875000000    -1.120000000     4.954000000
H    -1.952000000    -1.221000000     5.063000000
C    -0.238000000     0.006000000     4.479000000
C     1.129000000    -0.016000000     4.371000000
H     1.646000000     0.881000000     4.039000000
C    -1.108000000     1.153000000     3.999000000
O    -2.564000000     0.999000000     4.243000000
H    -1.023000000     1.080000000     2.904000000
O    -0.568000000     2.514000000     4.299000000
C    -0.493000000     3.450000000     3.210000000
C     0.812000000     3.759000000     2.819000000
H     1.679000000     3.464000000     3.406000000
C     0.981000000     4.397000000     1.586000000
O     2.194000000     4.473000000     1.076000000
C    -0.120000000     4.750000000     0.795000000
C    -0.044000000     5.454000000    -0.539000000
H    -0.875000000     6.108000000    -0.813000000
C     0.025000000     4.417000000    -1.675000000
C    -1.140000000     4.178000000    -2.454000000
H    -2.095000000     4.631000000    -2.197000000
H     0.783000000     6.167000000    -0.531000000
C    -1.381000000     4.438000000     1.212000000
H    -2.244000000     4.722000000     0.615000000
C    -1.646000000     3.887000000     2.463000000
C    -3.033000000     3.640000000     2.999000000
H    -3.767000000     4.386000000     2.686000000
H    -3.097000000     3.668000000     4.089000000
C    -3.523000000     2.288000000     2.460000000
C    -4.205000000     2.304000000     1.259000000
H    -4.264000000     3.252000000     0.730000000
C    -3.390000000     1.090000000     3.192000000
C    -3.719000000    -0.128000000     2.614000000
H    -3.376000000    -1.035000000     3.105000000
C    -4.386000000    -0.131000000     1.350000000
O    -4.822000000    -1.334000000     0.921000000
C    -3.928000000    -1.810000000    -0.120000000
C    -3.568000000    -3.263000000     0.051000000
C    -2.864000000    -3.893000000    -0.926000000
H    -2.606000000    -3.315000000    -1.810000000
C    -3.725000000    -3.939000000     1.300000000
H    -4.280000000    -3.417000000     2.075000000
O    -4.549000000    -1.557000000    -1.378000000
H    -2.982000000    -1.261000000    -0.244000000
C    -4.730000000     1.091000000     0.733000000
C    -5.417000000     1.125000000    -0.565000000
H    -5.889000000     2.103000000    -0.681000000
H    -6.206000000     0.377000000    -0.656000000
C    -4.470000000     0.804000000    -1.735000000
C    -3.913000000     1.904000000    -2.406000000
H    -4.099000000     2.935000000    -2.118000000
C    -4.066000000    -0.490000000    -2.086000000
C    -3.150000000    -0.706000000    -3.076000000
H    -2.681000000    -1.677000000    -3.217000000
C    -2.633000000     0.387000000    -3.786000000
O    -1.557000000     0.125000000    -4.582000000
C    -0.172000000     0.505000000    -4.241000000
C     0.775000000    -0.598000000    -4.638000000
C     0.283000000    -1.837000000    -4.950000000
H    -0.735000000    -2.182000000    -4.786000000
C     2.099000000    -0.278000000    -4.880000000
H     2.463000000     0.738000000    -4.748000000
O     0.151000000     1.815000000    -4.844000000
H    -0.117000000     0.491000000    -3.142000000
C    -3.077000000     1.673000000    -3.503000000
C    -2.461000000     2.955000000    -4.156000000
H    -3.124000000     3.796000000    -4.367000000
H    -2.353000000     2.620000000    -5.190000000
C    -1.146000000     3.334000000    -3.493000000
C     0.139000000     2.752000000    -3.857000000
C     1.316000000     3.081000000    -3.228000000
H     2.198000000     2.576000000    -3.614000000
C     1.285000000     3.882000000    -2.057000000
O     2.421000000     4.066000000    -1.273000000
C     2.505000000     3.469000000     0.030000000
H     1.751000000     2.670000000     0.075000000
C     3.890000000     2.804000000     0.300000000
C     4.592000000     2.924000000     1.502000000
H     4.225000000     3.452000000     2.379000000
C     4.409000000     2.003000000    -0.722000000
H     3.827000000     1.836000000    -1.625000000
C     5.665000000     1.364000000    -0.527000000
O     6.219000000     0.533000000    -1.512000000
C     6.328000000     1.557000000     0.653000000
H     7.216000000     0.981000000     0.898000000
C     5.743000000     2.240000000     1.690000000
O     6.254000000     2.136000000     3.003000000
C     5.454000000     1.762000000     4.059000000
C     4.735000000     0.571000000     4.020000000
H     4.877000000    -0.081000000     3.161000000
C     5.321000000     2.597000000     5.153000000
H     5.800000000     3.570000000     5.088000000
C     4.520000000     2.185000000     6.256000000
H     4.446000000     2.756000000     7.177000000
C     3.733000000     1.019000000     6.176000000
H     3.093000000     0.694000000     6.993000000
C     3.890000000     0.226000000     5.065000000
O     3.245000000    -0.983000000     4.989000000
C     1.873000000    -1.098000000     4.924000000
C     1.236000000    -2.178000000     5.406000000
H     1.702000000    -3.072000000     5.812000000
C    -0.127000000    -2.181000000     5.397000000
O    -0.746000000    -3.213000000     5.963000000
C    -1.914000000    -3.674000000     5.516000000
C    -1.959000000    -4.515000000     4.351000000
H    -1.034000000    -4.714000000     3.816000000
C    -3.100000000    -3.433000000     6.184000000
H    -3.032000000    -2.708000000     6.990000000
C    -4.298000000    -4.004000000     5.752000000
H    -5.192000000    -3.969000000     6.369000000
C    -4.249000000    -4.810000000     4.640000000
H    -5.225000000    -5.099000000     4.258000000
C    -3.188000000    -5.059000000     3.871000000
O    -3.296000000    -5.767000000     2.708000000
C    -3.230000000    -5.192000000     1.439000000
C    -2.478000000    -5.800000000     0.483000000
H    -2.018000000    -6.775000000     0.624000000
C    -2.295000000    -5.147000000    -0.700000000
O    -1.437000000    -5.722000000    -1.605000000
C    -1.477000000    -5.576000000    -2.946000000
C    -0.400000000    -4.815000000    -3.493000000
H     0.386000000    -4.384000000    -2.877000000
C    -2.418000000    -6.066000000    -3.803000000
H    -3.193000000    -6.668000000    -3.335000000
C    -2.352000000    -5.909000000    -5.207000000
H    -3.015000000    -6.527000000    -5.806000000
C    -1.264000000    -5.260000000    -5.745000000
H    -1.153000000    -5.213000000    -6.825000000
C    -0.295000000    -4.703000000    -4.945000000
O     0.742000000    -4.118000000    -5.601000000
C     1.213000000    -2.839000000    -5.199000000
C     2.581000000    -2.569000000    -5.494000000
H     3.181000000    -3.327000000    -5.992000000
C     2.988000000    -1.268000000    -5.360000000
O     4.319000000    -0.982000000    -5.686000000
C     5.150000000    -0.071000000    -5.030000000
C     5.776000000     1.011000000    -5.757000000
H     5.691000000     1.004000000    -6.841000000
C     6.599000000     1.907000000    -5.068000000
H     6.958000000     2.769000000    -5.624000000
C     6.784000000     1.767000000    -3.652000000
H     7.429000000     2.493000000    -3.164000000
C     6.110000000     0.779000000    -2.931000000
C     5.335000000    -0.162000000    -3.628000000
H     4.731000000    -0.849000000    -3.040000000
O     7.396000000    -4.319000000    -0.335000000
H     6.804000000    -3.740000000    -0.816000000
H     6.831000000    -5.014000000     0.000000000
O     4.428000000    -4.981000000    -2.978000000
H     3.542000000    -5.298000000    -3.155000000
H     4.364000000    -4.553000000    -2.124000000
O     2.275000000    -6.581000000    -3.791000000
H     1.431000000    -6.321000000    -4.159000000
H     2.477000000    -7.413000000    -4.219000000
O     4.120000000    -4.532000000     2.761000000
H     4.125000000    -3.903000000     2.040000000
H     3.206000000    -4.805000000     2.834000000
O     1.593000000    -6.947000000     3.962000000
H     1.248000000    -6.081000000     3.743000000
H     2.490000000    -6.780000000     4.252000000
O     4.139000000    -6.055000000     4.851000000
H     4.217000000    -5.280000000     5.407000000
H     4.469000000    -5.772000000     3.999000000
O     8.772000000    -0.201000000     2.494000000
H     7.997000000    -0.474000000     2.003000000
H     8.449000000    -0.030000000     3.378000000
O     1.406000000    -8.907000000     0.172000000
H     1.638000000    -7.994000000     0.002000000
H     1.078000000    -9.232000000    -0.666000000
O     1.349000000    -4.662000000     2.157000000
H     1.170000000    -5.140000000     1.348000000
H     0.626000000    -4.040000000     2.233000000
O     8.139000000    -1.445000000    -2.559000000
H     7.437000000    -1.012000000    -2.072000000
H     7.977000000    -1.210000000    -3.472000000
O    -0.859000000    -2.681000000     1.616000000
H    -1.613000000    -3.146000000     1.255000000
H    -0.286000000    -2.532000000     0.864000000
O     9.505000000    -2.715000000     0.795000000
H     9.052000000    -2.771000000     1.637000000
H     8.932000000    -3.177000000     0.183000000
O     6.598000000    -1.411000000     1.486000000
H     6.997000000    -1.999000000     0.844000000
H     5.656000000    -1.517000000     1.353000000
O     1.808000000    -6.407000000    -0.855000000
H     1.774000000    -6.716000000    -1.760000000
H     2.512000000    -5.759000000    -0.849000000
O     7.366000000    -8.053000000    -0.612000000
H     6.547000000    -7.597000000    -0.419000000
H     7.329000000    -8.849000000    -0.081000000
O     4.746000000    -8.982000000     0.532000000
H     4.952000000    -8.930000000     1.465000000
H     4.396000000    -8.118000000     0.316000000
O     6.280000000    -6.071000000    -4.882000000
H     5.835000000    -6.654000000    -5.497000000
H     5.573000000    -5.682000000    -4.367000000
O     5.146000000    -5.951000000     0.576000000
H     5.181000000    -5.809000000     1.522000000
H     4.645000000    -5.208000000     0.241000000
O     6.336000000    -3.587000000     4.510000000
H     7.198000000    -3.473000000     4.111000000
H     5.779000000    -3.893000000     3.795000000
