201
-1249.97931
C    -1.100000000    -0.682000000     5.489000000
H    -2.153000000    -0.842000000     5.269000000
C    -0.391000000     0.422000000     4.988000000
C     1.030000000     0.440000000     5.132000000
H     1.473000000     1.309000000     4.653000000
C    -1.128000000     1.481000000     4.126000000
O    -2.564000000     1.242000000     4.235000000
H    -0.954000000     1.254000000     3.064000000
O    -0.752000000     2.859000000     4.318000000
C    -0.543000000     3.491000000     3.112000000
C     0.751000000     3.571000000     2.625000000
H     1.564000000     3.161000000     3.219000000
C     1.026000000     4.113000000     1.394000000
O     2.289000000     4.141000000     0.827000000
C    -0.017000000     4.721000000     0.686000000
C     0.113000000     5.385000000    -0.612000000
H    -0.793000000     5.969000000    -0.784000000
C     0.248000000     4.516000000    -1.859000000
C    -0.950000000     4.158000000    -2.546000000
H    -1.925000000     4.569000000    -2.301000000
H     0.935000000     6.104000000    -0.604000000
C    -1.310000000     4.669000000     1.148000000
H    -2.102000000     5.159000000     0.588000000
C    -1.637000000     3.996000000     2.343000000
C    -3.071000000     3.848000000     2.795000000
H    -3.685000000     4.584000000     2.272000000
H    -3.070000000     4.024000000     3.873000000
C    -3.576000000     2.434000000     2.410000000
C    -4.355000000     2.338000000     1.245000000
H    -4.657000000     3.212000000     0.673000000
C    -3.299000000     1.248000000     3.121000000
C    -3.673000000     0.024000000     2.632000000
H    -3.452000000    -0.825000000     3.274000000
C    -4.345000000    -0.034000000     1.395000000
O    -4.610000000    -1.327000000     0.971000000
C    -3.783000000    -1.861000000    -0.042000000
C    -3.449000000    -3.282000000     0.205000000
C    -2.968000000    -4.079000000    -0.850000000
H    -3.081000000    -3.736000000    -1.876000000
C    -3.287000000    -3.726000000     1.492000000
H    -3.712000000    -3.172000000     2.326000000
O    -4.450000000    -1.702000000    -1.350000000
H    -2.828000000    -1.327000000    -0.153000000
C    -4.630000000     1.055000000     0.646000000
C    -5.380000000     0.965000000    -0.644000000
H    -5.946000000     1.851000000    -0.939000000
H    -6.153000000     0.210000000    -0.483000000
C    -4.491000000     0.698000000    -1.820000000
C    -3.835000000     1.775000000    -2.532000000
H    -4.090000000     2.801000000    -2.281000000
C    -3.990000000    -0.619000000    -2.053000000
C    -2.963000000    -0.818000000    -2.998000000
H    -2.570000000    -1.816000000    -3.175000000
C    -2.429000000     0.263000000    -3.709000000
O    -1.475000000     0.068000000    -4.681000000
C    -0.112000000     0.451000000    -4.323000000
C     0.802000000    -0.660000000    -4.797000000
C     0.374000000    -2.021000000    -4.719000000
H    -0.575000000    -2.320000000    -4.283000000
C     2.048000000    -0.406000000    -5.257000000
H     2.455000000     0.602000000    -5.276000000
O     0.266000000     1.690000000    -4.943000000
H     0.020000000     0.510000000    -3.232000000
C    -2.877000000     1.574000000    -3.529000000
C    -2.254000000     2.813000000    -4.262000000
H    -2.891000000     3.692000000    -4.146000000
H    -2.189000000     2.620000000    -5.335000000
C    -0.916000000     3.233000000    -3.632000000
C     0.306000000     2.777000000    -4.113000000
C     1.429000000     3.068000000    -3.362000000
H     2.312000000     2.473000000    -3.579000000
C     1.445000000     3.948000000    -2.256000000
O     2.597000000     3.962000000    -1.535000000
C     2.568000000     3.252000000    -0.288000000
H     1.681000000     2.608000000    -0.379000000
C     3.785000000     2.397000000    -0.093000000
C     4.322000000     2.165000000     1.180000000
H     3.929000000     2.639000000     2.076000000
C     4.428000000     1.858000000    -1.224000000
H     4.089000000     2.178000000    -2.206000000
C     5.605000000     1.140000000    -1.057000000
O     6.288000000     0.644000000    -2.143000000
C     6.032000000     0.728000000     0.245000000
H     6.904000000     0.080000000     0.291000000
C     5.426000000     1.286000000     1.312000000
O     5.956000000     1.158000000     2.581000000
C     5.329000000     1.395000000     3.824000000
C     4.572000000     0.305000000     4.282000000
H     4.307000000    -0.494000000     3.594000000
C     5.608000000     2.535000000     4.659000000
H     6.302000000     3.321000000     4.371000000
C     5.096000000     2.442000000     5.978000000
H     5.384000000     3.207000000     6.695000000
C     4.273000000     1.416000000     6.415000000
H     3.799000000     1.389000000     7.393000000
C     3.972000000     0.397000000     5.551000000
O     3.052000000    -0.562000000     5.946000000
C     1.712000000    -0.566000000     5.754000000
C     0.976000000    -1.550000000     6.366000000
H     1.478000000    -2.365000000     6.882000000
C    -0.388000000    -1.680000000     6.188000000
O    -1.045000000    -2.762000000     6.747000000
C    -1.963000000    -3.515000000     6.061000000
C    -1.637000000    -3.970000000     4.758000000
H    -0.692000000    -3.686000000     4.303000000
C    -3.187000000    -3.687000000     6.665000000
H    -3.400000000    -3.395000000     7.690000000
C    -4.134000000    -4.471000000     6.044000000
H    -5.059000000    -4.705000000     6.564000000
C    -3.822000000    -5.025000000     4.781000000
H    -4.443000000    -5.798000000     4.337000000
C    -2.606000000    -4.752000000     4.145000000
O    -2.390000000    -5.449000000     3.003000000
C    -2.645000000    -4.936000000     1.737000000
C    -2.403000000    -5.817000000     0.682000000
H    -1.950000000    -6.800000000     0.787000000
C    -2.371000000    -5.326000000    -0.580000000
O    -1.879000000    -6.133000000    -1.531000000
C    -1.839000000    -5.770000000    -2.855000000
C    -0.599000000    -5.363000000    -3.345000000
H     0.217000000    -5.407000000    -2.629000000
C    -2.904000000    -5.621000000    -3.686000000
H    -3.828000000    -5.933000000    -3.207000000
C    -2.820000000    -5.102000000    -4.995000000
H    -3.649000000    -4.757000000    -5.608000000
C    -1.564000000    -4.692000000    -5.490000000
H    -1.514000000    -4.157000000    -6.435000000
C    -0.469000000    -4.883000000    -4.674000000
O     0.796000000    -4.388000000    -5.020000000
C     1.210000000    -3.026000000    -5.145000000
C     2.501000000    -2.744000000    -5.563000000
H     3.101000000    -3.604000000    -5.850000000
C     2.982000000    -1.427000000    -5.613000000
O     4.234000000    -1.195000000    -6.035000000
C     5.051000000    -0.196000000    -5.486000000
C     5.374000000     0.958000000    -6.215000000
H     5.107000000     1.042000000    -7.265000000
C     5.968000000     2.030000000    -5.596000000
H     6.284000000     2.872000000    -6.207000000
C     6.223000000     1.974000000    -4.184000000
H     6.835000000     2.734000000    -3.705000000
C     5.836000000     0.839000000    -3.464000000
C     5.304000000    -0.269000000    -4.132000000
H     5.313000000    -1.243000000    -3.650000000
O     7.891000000    -5.519000000     0.042000000
H     7.213000000    -5.429000000     0.711000000
H     7.434000000    -5.366000000    -0.785000000
O     6.312000000    -4.204000000    -1.876000000
H     6.670000000    -3.527000000    -1.301000000
H     5.363000000    -4.127000000    -1.775000000
O     3.767000000    -4.638000000    -3.674000000
H     2.959000000    -5.126000000    -3.832000000
H     3.711000000    -4.371000000    -2.756000000
O     3.416000000    -3.542000000     2.927000000
H     3.765000000    -3.423000000     2.044000000
H     2.555000000    -3.124000000     2.902000000
O     0.101000000    -7.291000000     2.416000000
H     0.369000000    -6.684000000     1.726000000
H    -0.360000000    -6.743000000     3.051000000
O     3.953000000    -4.504000000     5.395000000
H     4.275000000    -3.795000000     5.953000000
H     3.894000000    -4.115000000     4.523000000
O     8.006000000    -0.890000000     3.934000000
H     7.714000000    -1.665000000     3.454000000
H     7.294000000    -0.260000000     3.827000000
O     9.801000000    -4.389000000    -1.484000000
H    10.034000000    -3.556000000    -1.073000000
H     9.282000000    -4.846000000    -0.822000000
O     7.797000000    -2.159000000    -0.511000000
H     8.621000000    -1.773000000    -0.213000000
H     7.597000000    -1.696000000    -1.324000000
O     3.768000000    -8.561000000    -1.914000000
H     2.813000000    -8.516000000    -1.955000000
H     3.989000000    -8.172000000    -1.067000000
O     0.239000000    -3.883000000     1.502000000
H     1.077000000    -4.242000000     1.211000000
H    -0.194000000    -3.601000000     0.697000000
O     5.474000000    -4.928000000    -5.663000000
H     5.118000000    -5.590000000    -6.255000000
H     4.897000000    -4.954000000    -4.900000000
O     6.819000000    -2.694000000     2.193000000
H     7.301000000    -2.738000000     1.366000000
H     5.908000000    -2.558000000     1.932000000
O     2.207000000    -5.641000000     0.404000000
H     2.670000000    -6.474000000     0.491000000
H     2.683000000    -5.173000000    -0.282000000
O     7.555000000    -5.319000000    -3.972000000
H     6.935000000    -5.066000000    -4.655000000
H     7.171000000    -4.981000000    -3.163000000
O     4.259000000    -7.438000000     0.430000000
H     4.673000000    -6.723000000     0.913000000
H     4.602000000    -8.233000000     0.838000000
O     3.977000000    -7.563000000    -4.535000000
H     4.849000000    -7.719000000    -4.898000000
H     4.117000000    -7.500000000    -3.591000000
O     5.540000000    -5.179000000     1.544000000
H     5.327000000    -4.492000000     0.912000000
H     4.916000000    -5.049000000     2.258000000
O     8.342000000    -4.827000000     3.226000000
H     9.249000000    -4.553000000     3.095000000
H     7.826000000    -4.200000000     2.719000000
