201
-1254.62608
C    -1.064000000    -0.284000000     4.746000000
H    -2.086000000    -0.519000000     4.457000000
C    -0.475000000     0.954000000     4.406000000
C     0.788000000     1.204000000     4.878000000
H     1.196000000     2.192000000     4.683000000
C    -1.221000000     1.969000000     3.562000000
O    -2.619000000     1.890000000     3.832000000
H    -1.019000000     1.679000000     2.521000000
O    -0.692000000     3.276000000     3.756000000
C    -0.364000000     3.982000000     2.576000000
C     0.972000000     3.957000000     2.213000000
H     1.660000000     3.467000000     2.897000000
C     1.369000000     4.310000000     0.941000000
O     2.620000000     4.084000000     0.511000000
C     0.453000000     4.885000000     0.053000000
C     0.779000000     5.223000000    -1.408000000
H     0.100000000     6.006000000    -1.751000000
C     0.782000000     3.986000000    -2.340000000
C    -0.352000000     3.660000000    -3.092000000
H    -1.195000000     4.346000000    -3.057000000
H     1.713000000     5.787000000    -1.453000000
C    -0.923000000     4.919000000     0.471000000
H    -1.654000000     5.202000000    -0.281000000
C    -1.335000000     4.440000000     1.702000000
C    -2.801000000     4.386000000     2.093000000
H    -3.377000000     5.138000000     1.551000000
H    -2.863000000     4.639000000     3.154000000
C    -3.400000000     3.019000000     1.750000000
C    -4.082000000     2.827000000     0.511000000
H    -4.196000000     3.646000000    -0.194000000
C    -3.413000000     1.950000000     2.680000000
C    -4.078000000     0.779000000     2.385000000
H    -3.970000000    -0.068000000     3.057000000
C    -4.489000000     0.528000000     1.073000000
O    -4.813000000    -0.804000000     0.788000000
C    -3.962000000    -1.569000000    -0.082000000
C    -3.860000000    -2.985000000     0.355000000
C    -3.418000000    -3.939000000    -0.522000000
H    -3.237000000    -3.672000000    -1.561000000
C    -4.114000000    -3.282000000     1.638000000
H    -4.544000000    -2.513000000     2.276000000
O    -4.339000000    -1.393000000    -1.410000000
H    -2.919000000    -1.223000000    -0.041000000
C    -4.509000000     1.608000000     0.144000000
C    -5.099000000     1.308000000    -1.278000000
H    -5.602000000     2.211000000    -1.632000000
H    -5.897000000     0.577000000    -1.134000000
C    -4.074000000     0.812000000    -2.246000000
C    -3.436000000     1.638000000    -3.177000000
H    -3.630000000     2.696000000    -3.016000000
C    -3.722000000    -0.533000000    -2.247000000
C    -2.834000000    -1.037000000    -3.156000000
H    -2.641000000    -2.103000000    -3.061000000
C    -2.149000000    -0.181000000    -4.061000000
O    -1.112000000    -0.699000000    -4.804000000
C     0.238000000    -0.491000000    -4.341000000
C     1.020000000    -1.735000000    -4.525000000
C     0.450000000    -2.941000000    -4.249000000
H    -0.568000000    -2.978000000    -3.869000000
C     2.392000000    -1.653000000    -4.903000000
H     2.854000000    -0.692000000    -5.112000000
O     0.784000000     0.686000000    -5.005000000
H     0.114000000    -0.254000000    -3.274000000
C    -2.460000000     1.207000000    -4.043000000
C    -1.699000000     2.369000000    -4.781000000
H    -2.334000000     3.255000000    -4.838000000
H    -1.557000000     2.034000000    -5.811000000
C    -0.358000000     2.674000000    -4.050000000
C     0.729000000     1.822000000    -4.195000000
C     1.904000000     2.147000000    -3.465000000
H     2.767000000     1.510000000    -3.639000000
C     1.940000000     3.261000000    -2.605000000
O     3.047000000     3.481000000    -1.704000000
C     2.829000000     2.984000000    -0.350000000
H     1.903000000     2.399000000    -0.253000000
C     4.008000000     2.176000000     0.022000000
C     4.568000000     2.293000000     1.309000000
H     4.055000000     2.908000000     2.044000000
C     4.569000000     1.259000000    -0.844000000
H     4.129000000     1.323000000    -1.836000000
C     5.667000000     0.457000000    -0.476000000
O     6.124000000    -0.545000000    -1.333000000
C     6.282000000     0.681000000     0.738000000
H     7.146000000     0.051000000     0.929000000
C     5.755000000     1.611000000     1.639000000
O     6.281000000     1.507000000     2.913000000
C     5.538000000     1.927000000     4.046000000
C     4.549000000     1.059000000     4.596000000
H     4.600000000    -0.007000000     4.390000000
C     5.751000000     3.232000000     4.549000000
H     6.557000000     3.853000000     4.165000000
C     4.886000000     3.660000000     5.509000000
H     5.053000000     4.673000000     5.868000000
C     3.860000000     2.906000000     6.048000000
H     3.206000000     3.294000000     6.825000000
C     3.732000000     1.588000000     5.592000000
O     2.768000000     0.710000000     6.195000000
C     1.496000000     0.321000000     5.706000000
C     0.873000000    -0.844000000     6.194000000
H     1.443000000    -1.474000000     6.872000000
C    -0.402000000    -1.146000000     5.595000000
O    -1.008000000    -2.295000000     6.047000000
C    -2.325000000    -2.629000000     5.759000000
C    -2.632000000    -3.547000000     4.815000000
H    -1.858000000    -4.053000000     4.243000000
C    -3.382000000    -1.961000000     6.329000000
H    -3.137000000    -1.223000000     7.088000000
C    -4.727000000    -2.246000000     5.969000000
H    -5.564000000    -1.739000000     6.441000000
C    -4.984000000    -3.227000000     5.041000000
H    -5.968000000    -3.464000000     4.646000000
C    -3.961000000    -3.866000000     4.444000000
O    -4.107000000    -4.858000000     3.482000000
C    -3.953000000    -4.601000000     2.164000000
C    -3.434000000    -5.570000000     1.307000000
H    -3.295000000    -6.562000000     1.730000000
C    -3.207000000    -5.250000000    -0.023000000
O    -2.689000000    -6.252000000    -0.794000000
C    -2.405000000    -6.062000000    -2.162000000
C    -1.087000000    -5.781000000    -2.444000000
H    -0.322000000    -5.957000000    -1.692000000
C    -3.396000000    -5.977000000    -3.142000000
H    -4.440000000    -6.144000000    -2.891000000
C    -2.988000000    -5.526000000    -4.410000000
H    -3.652000000    -5.347000000    -5.252000000
C    -1.645000000    -5.336000000    -4.734000000
H    -1.453000000    -5.196000000    -5.795000000
C    -0.667000000    -5.546000000    -3.711000000
O     0.707000000    -5.312000000    -3.953000000
C     1.237000000    -4.061000000    -4.296000000
C     2.583000000    -4.068000000    -4.608000000
H     3.185000000    -4.971000000    -4.662000000
C     3.176000000    -2.837000000    -4.898000000
O     4.534000000    -2.789000000    -5.085000000
C     5.247000000    -1.757000000    -4.589000000
C     5.762000000    -0.831000000    -5.465000000
H     5.726000000    -0.909000000    -6.549000000
C     6.352000000     0.287000000    -4.852000000
H     6.741000000     1.147000000    -5.390000000
C     6.495000000     0.487000000    -3.496000000
H     6.943000000     1.400000000    -3.114000000
C     5.987000000    -0.517000000    -2.654000000
C     5.316000000    -1.630000000    -3.232000000
H     4.902000000    -2.364000000    -2.546000000
O     5.108000000    -5.572000000     4.637000000
H     4.231000000    -5.188000000     4.643000000
H     5.385000000    -5.524000000     3.722000000
O     2.482000000    -3.653000000     3.982000000
H     1.711000000    -3.561000000     3.423000000
H     3.143000000    -3.096000000     3.571000000
O     7.334000000    -4.409000000    -2.519000000
H     7.226000000    -3.834000000    -1.761000000
H     6.440000000    -4.627000000    -2.783000000
O     4.138000000    -5.346000000    -1.700000000
H     3.645000000    -4.788000000    -2.302000000
H     4.081000000    -4.897000000    -0.856000000
O     7.289000000    -7.873000000     1.710000000
H     6.983000000    -7.091000000     1.251000000
H     7.473000000    -7.573000000     2.599000000
O     3.556000000    -7.243000000     1.063000000
H     4.380000000    -6.782000000     1.223000000
H     3.645000000    -8.066000000     1.543000000
O     6.032000000    -2.395000000     4.140000000
H     5.414000000    -2.394000000     3.408000000
H     6.403000000    -3.277000000     4.138000000
O     0.078000000    -3.442000000     2.635000000
H     0.102000000    -4.200000000     2.052000000
H     0.106000000    -2.687000000     2.048000000
O     6.765000000    -3.044000000    -0.093000000
H     7.533000000    -2.832000000     0.438000000
H     6.023000000    -2.725000000     0.421000000
O     9.005000000    -2.435000000     1.107000000
H     9.910000000    -2.634000000     0.866000000
H     9.001000000    -2.463000000     2.064000000
O     2.288000000    -7.628000000    -1.354000000
H     2.760000000    -6.825000000    -1.575000000
H     2.680000000    -7.917000000    -0.530000000
O     8.152000000    -1.578000000     5.681000000
H     7.515000000    -1.890000000     5.038000000
H     7.744000000    -0.802000000     6.065000000
O     4.724000000    -2.999000000     6.388000000
H     4.707000000    -2.102000000     6.722000000
H     5.036000000    -2.913000000     5.487000000
O     5.657000000    -5.572000000     1.159000000
H     4.813000000    -5.121000000     1.189000000
H     6.278000000    -4.901000000     0.876000000
O     5.714000000    -8.136000000    -1.953000000
H     5.536000000    -8.720000000    -1.216000000
H     5.144000000    -7.382000000    -1.804000000
O     0.951000000    -5.727000000     0.578000000
H     1.215000000    -6.620000000     0.356000000
H     1.775000000    -5.251000000     0.674000000
O     0.060000000    -6.267000000     4.782000000
H     0.262000000    -5.356000000     4.568000000
H     0.914000000    -6.692000000     4.849000000
O     8.420000000    -4.000000000     3.424000000
H     8.999000000    -4.305000000     4.122000000
H     8.611000000    -4.577000000     2.685000000
O     8.852000000    -0.134000000    -1.692000000
H     9.263000000    -0.297000000    -2.541000000
H     7.953000000    -0.445000000    -1.798000000
