201
-1262.41793
C    -1.235000000    -0.103000000     5.492000000
H    -2.095000000    -0.712000000     5.228000000
C    -1.068000000     1.095000000     4.796000000
C     0.048000000     1.829000000     5.169000000
H     0.234000000     2.757000000     4.635000000
C    -2.005000000     1.603000000     3.665000000
O    -3.374000000     1.264000000     3.938000000
H    -1.613000000     1.145000000     2.745000000
O    -1.900000000     3.064000000     3.521000000
C    -2.075000000     3.613000000     2.298000000
C    -0.940000000     4.200000000     1.777000000
H    -0.047000000     4.228000000     2.398000000
C    -0.859000000     4.677000000     0.492000000
O     0.339000000     5.209000000    -0.052000000
C    -1.978000000     4.574000000    -0.315000000
C    -1.980000000     5.032000000    -1.757000000
H    -3.021000000     5.220000000    -2.029000000
C    -1.357000000     4.024000000    -2.823000000
C    -2.242000000     2.997000000    -3.237000000
H    -3.283000000     3.133000000    -2.957000000
H    -1.394000000     5.950000000    -1.833000000
C    -3.122000000     3.903000000     0.166000000
H    -3.972000000     3.765000000    -0.498000000
C    -3.220000000     3.544000000     1.478000000
C    -4.459000000     2.951000000     1.904000000
H    -5.341000000     3.295000000     1.359000000
H    -4.748000000     3.172000000     2.933000000
C    -4.394000000     1.450000000     1.758000000
C    -4.873000000     0.850000000     0.621000000
H    -5.303000000     1.439000000    -0.185000000
C    -3.869000000     0.650000000     2.813000000
C    -3.704000000    -0.717000000     2.598000000
H    -3.117000000    -1.336000000     3.271000000
C    -4.103000000    -1.335000000     1.397000000
O    -3.753000000    -2.630000000     1.128000000
C    -2.688000000    -2.999000000     0.191000000
C    -1.778000000    -4.145000000     0.633000000
C    -1.329000000    -5.152000000    -0.286000000
H    -1.630000000    -5.018000000    -1.322000000
C    -1.334000000    -4.156000000     1.996000000
H    -1.618000000    -3.400000000     2.724000000
O    -3.305000000    -3.305000000    -1.090000000
H    -2.018000000    -2.141000000     0.031000000
C    -4.737000000    -0.521000000     0.434000000
C    -5.293000000    -1.150000000    -0.884000000
H    -6.133000000    -0.582000000    -1.290000000
H    -5.656000000    -2.142000000    -0.608000000
C    -4.123000000    -1.278000000    -1.956000000
C    -3.968000000    -0.194000000    -2.831000000
H    -4.654000000     0.649000000    -2.832000000
C    -3.308000000    -2.392000000    -2.052000000
C    -2.230000000    -2.401000000    -2.923000000
H    -1.560000000    -3.249000000    -3.048000000
C    -1.994000000    -1.338000000    -3.770000000
O    -0.854000000    -1.407000000    -4.507000000
C     0.294000000    -0.647000000    -4.068000000
C     1.575000000    -1.424000000    -4.265000000
C     1.551000000    -2.819000000    -4.354000000
H     0.619000000    -3.362000000    -4.222000000
C     2.719000000    -0.676000000    -4.326000000
H     2.763000000     0.411000000    -4.329000000
O     0.343000000     0.659000000    -4.684000000
H     0.196000000    -0.600000000    -2.973000000
C    -2.872000000    -0.216000000    -3.707000000
C    -2.651000000     0.976000000    -4.594000000
H    -3.602000000     1.435000000    -4.871000000
H    -2.424000000     0.566000000    -5.580000000
C    -1.702000000     1.923000000    -4.002000000
C    -0.306000000     1.746000000    -4.082000000
C     0.553000000     2.795000000    -3.640000000
H     1.635000000     2.690000000    -3.625000000
C     0.028000000     3.864000000    -2.951000000
O     0.873000000     4.699000000    -2.229000000
C     1.135000000     4.291000000    -0.885000000
H     0.586000000     3.363000000    -0.669000000
C     2.606000000     4.020000000    -0.591000000
C     2.947000000     3.697000000     0.747000000
H     2.236000000     3.738000000     1.568000000
C     3.550000000     3.874000000    -1.565000000
H     3.338000000     4.106000000    -2.606000000
C     4.897000000     3.558000000    -1.227000000
O     5.873000000     3.469000000    -2.235000000
C     5.219000000     3.264000000     0.093000000
H     6.237000000     2.958000000     0.321000000
C     4.236000000     3.353000000     1.103000000
O     4.537000000     3.032000000     2.482000000
C     3.810000000     3.522000000     3.581000000
C     3.333000000     2.622000000     4.510000000
H     3.499000000     1.549000000     4.455000000
C     3.571000000     4.891000000     3.721000000
H     3.987000000     5.537000000     2.952000000
C     2.839000000     5.354000000     4.829000000
H     2.620000000     6.386000000     5.091000000
C     2.352000000     4.460000000     5.723000000
H     1.950000000     4.749000000     6.691000000
C     2.623000000     3.140000000     5.586000000
O     2.064000000     2.283000000     6.482000000
C     0.929000000     1.503000000     6.169000000
C     0.729000000     0.268000000     6.820000000
H     1.435000000    -0.123000000     7.548000000
C    -0.350000000    -0.574000000     6.501000000
O    -0.461000000    -1.789000000     7.118000000
C    -0.929000000    -2.921000000     6.458000000
C    -0.346000000    -3.341000000     5.231000000
H     0.476000000    -2.750000000     4.834000000
C    -1.987000000    -3.662000000     7.000000000
H    -2.351000000    -3.329000000     7.969000000
C    -2.401000000    -4.881000000     6.399000000
H    -3.237000000    -5.425000000     6.831000000
C    -1.823000000    -5.265000000     5.197000000
H    -2.145000000    -6.164000000     4.678000000
C    -0.713000000    -4.592000000     4.711000000
O     0.010000000    -5.090000000     3.694000000
C    -0.541000000    -5.152000000     2.402000000
C    -0.004000000    -6.033000000     1.505000000
H     0.755000000    -6.738000000     1.834000000
C    -0.408000000    -6.052000000     0.162000000
O     0.279000000    -6.984000000    -0.615000000
C     0.642000000    -6.790000000    -1.960000000
C     1.518000000    -5.786000000    -2.476000000
H     2.081000000    -5.299000000    -1.684000000
C    -0.207000000    -7.430000000    -2.894000000
H    -0.981000000    -8.116000000    -2.556000000
C    -0.015000000    -7.217000000    -4.256000000
H    -0.775000000    -7.694000000    -4.870000000
C     0.877000000    -6.261000000    -4.764000000
H     0.957000000    -6.175000000    -5.845000000
C     1.756000000    -5.638000000    -3.873000000
O     2.851000000    -4.878000000    -4.308000000
C     2.761000000    -3.466000000    -4.350000000
C     3.958000000    -2.751000000    -4.302000000
H     4.924000000    -3.247000000    -4.350000000
C     3.921000000    -1.370000000    -4.381000000
O     5.170000000    -0.748000000    -4.345000000
C     5.329000000     0.632000000    -4.423000000
C     5.110000000     1.309000000    -5.626000000
H     4.876000000     0.723000000    -6.511000000
C     5.291000000     2.670000000    -5.771000000
H     5.205000000     3.173000000    -6.731000000
C     5.584000000     3.360000000    -4.620000000
H     5.705000000     4.438000000    -4.688000000
C     5.672000000     2.759000000    -3.365000000
C     5.546000000     1.379000000    -3.303000000
H     5.672000000     0.826000000    -2.376000000
O     3.123000000    -4.377000000     1.666000000
H     2.263000000    -4.325000000     1.248000000
H     3.711000000    -4.662000000     0.967000000
O     6.237000000    -1.546000000    -0.779000000
H     5.714000000    -1.093000000    -0.118000000
H     7.024000000    -1.825000000    -0.312000000
O     6.388000000     0.429000000     4.299000000
H     5.501000000     0.198000000     4.022000000
H     6.759000000     0.894000000     3.549000000
O     7.962000000     3.895000000     2.119000000
H     8.677000000     3.358000000     1.776000000
H     7.298000000     3.262000000     2.392000000
O     4.424000000    -0.397000000     6.394000000
H     3.716000000    -0.899000000     6.798000000
H     4.498000000    -0.756000000     5.510000000
O     7.803000000    -2.512000000    -2.918000000
H     7.297000000    -1.868000000    -2.422000000
H     7.366000000    -2.554000000    -3.769000000
O     4.541000000    -6.236000000     0.280000000
H     4.977000000    -5.711000000    -0.391000000
H     5.242000000    -6.489000000     0.880000000
O     9.167000000    -0.238000000     0.678000000
H     9.242000000    -1.186000000     0.783000000
H     9.923000000     0.004000000     0.143000000
O     4.408000000    -3.717000000    -1.134000000
H     3.532000000    -3.337000000    -1.201000000
H     4.976000000    -2.974000000    -0.929000000
O     9.208000000    -1.458000000     3.794000000
H     8.369000000    -1.445000000     3.333000000
H     8.981000000    -1.284000000     4.708000000
O     5.511000000     2.403000000     6.790000000
H     5.553000000     2.685000000     5.876000000
H     5.306000000     1.470000000     6.744000000
O     6.932000000    -1.945000000     2.826000000
H     6.455000000    -2.371000000     3.539000000
H     6.248000000    -1.585000000     2.262000000
O     4.371000000    -5.139000000     4.082000000
H     3.956000000    -5.962000000     4.340000000
H     3.886000000    -4.859000000     3.306000000
O     9.035000000    -3.103000000     1.041000000
H     8.759000000    -3.830000000     0.482000000
H     8.424000000    -3.122000000     1.777000000
O     2.998000000    -2.583000000     5.184000000
H     3.163000000    -1.940000000     4.494000000
H     3.462000000    -3.368000000     4.896000000
O     6.131000000    -3.656000000     5.629000000
H     5.490000000    -4.257000000     5.248000000
H     6.874000000    -4.214000000     5.861000000
O     7.398000000    -1.373000000     6.157000000
H     7.168000000    -0.810000000     5.418000000
H     6.983000000    -2.212000000     5.958000000
O     7.003000000     1.127000000     1.753000000
H     7.861000000     0.756000000     1.542000000
H     6.380000000     0.444000000     1.506000000
O     2.024000000    -2.331000000    -0.660000000
H     1.605000000    -2.052000000    -1.474000000
H     1.891000000    -1.598000000    -0.059000000
