201
-1210.60305
C     0.049000000     0.107000000     5.581000000
H    -0.957000000    -0.304000000     5.579000000
C     0.258000000     1.200000000     4.696000000
C     1.534000000     1.783000000     4.680000000
H     1.750000000     2.541000000     3.931000000
C    -0.826000000     1.830000000     3.709000000
O    -2.109000000     1.429000000     4.169000000
H    -0.563000000     1.398000000     2.732000000
O    -0.761000000     3.244000000     3.652000000
C    -1.005000000     3.807000000     2.375000000
C     0.121000000     4.196000000     1.633000000
H     1.077000000     4.074000000     2.136000000
C    -0.156000000     4.618000000     0.363000000
O     0.920000000     4.815000000    -0.449000000
C    -1.446000000     4.655000000    -0.216000000
C    -1.713000000     5.117000000    -1.626000000
H    -2.725000000     5.504000000    -1.762000000
C    -1.526000000     3.957000000    -2.607000000
C    -2.672000000     3.180000000    -2.925000000
H    -3.686000000     3.444000000    -2.637000000
H    -1.109000000     5.971000000    -1.941000000
C    -2.497000000     4.289000000     0.632000000
H    -3.535000000     4.320000000     0.311000000
C    -2.259000000     3.837000000     1.914000000
C    -3.523000000     3.354000000     2.673000000
H    -4.395000000     3.856000000     2.249000000
H    -3.391000000     3.609000000     3.727000000
C    -3.749000000     1.841000000     2.474000000
C    -4.586000000     1.304000000     1.514000000
H    -5.241000000     1.966000000     0.954000000
C    -2.944000000     0.997000000     3.188000000
C    -2.884000000    -0.393000000     2.890000000
H    -2.222000000    -1.048000000     3.450000000
C    -3.839000000    -0.884000000     2.050000000
O    -3.726000000    -2.158000000     1.787000000
C    -2.812000000    -2.537000000     0.781000000
C    -2.001000000    -3.737000000     1.231000000
C    -1.581000000    -4.734000000     0.290000000
H    -1.896000000    -4.557000000    -0.736000000
C    -1.503000000    -3.880000000     2.554000000
H    -1.748000000    -3.189000000     3.356000000
O    -3.699000000    -3.038000000    -0.337000000
H    -2.197000000    -1.672000000     0.496000000
C    -4.660000000    -0.069000000     1.303000000
C    -5.355000000    -0.728000000     0.210000000
H    -6.192000000    -0.073000000    -0.042000000
H    -5.760000000    -1.706000000     0.479000000
C    -4.528000000    -0.853000000    -1.092000000
C    -4.406000000     0.218000000    -2.011000000
H    -4.732000000     1.192000000    -1.653000000
C    -3.908000000    -2.081000000    -1.363000000
C    -3.151000000    -2.198000000    -2.551000000
H    -2.567000000    -3.074000000    -2.822000000
C    -3.178000000    -1.191000000    -3.493000000
O    -2.301000000    -1.324000000    -4.556000000
C    -1.048000000    -0.591000000    -4.281000000
C     0.145000000    -1.576000000    -4.490000000
C    -0.050000000    -2.967000000    -4.537000000
H    -1.074000000    -3.334000000    -4.553000000
C     1.459000000    -1.061000000    -4.482000000
H     1.597000000     0.003000000    -4.307000000
O    -0.949000000     0.668000000    -5.049000000
H    -1.149000000    -0.386000000    -3.206000000
C    -3.793000000     0.035000000    -3.205000000
C    -3.615000000     1.205000000    -4.160000000
H    -4.542000000     1.763000000    -4.012000000
H    -3.546000000     0.854000000    -5.192000000
C    -2.427000000     2.100000000    -3.864000000
C    -1.140000000     1.841000000    -4.366000000
C    -0.011000000     2.556000000    -3.952000000
H     0.986000000     2.229000000    -4.236000000
C    -0.281000000     3.678000000    -3.197000000
O     0.866000000     4.235000000    -2.702000000
C     1.283000000     3.825000000    -1.444000000
H     0.934000000     2.843000000    -1.091000000
C     2.839000000     3.775000000    -1.329000000
C     3.443000000     3.519000000    -0.074000000
H     2.899000000     3.561000000     0.866000000
C     3.639000000     3.535000000    -2.441000000
H     3.181000000     3.732000000    -3.407000000
C     4.973000000     3.195000000    -2.337000000
O     5.725000000     2.835000000    -3.511000000
C     5.557000000     2.925000000    -1.101000000
H     6.617000000     2.681000000    -1.092000000
C     4.853000000     3.146000000     0.020000000
O     5.457000000     2.932000000     1.274000000
C     5.057000000     3.329000000     2.464000000
C     4.443000000     2.367000000     3.338000000
H     4.183000000     1.387000000     2.947000000
C     5.482000000     4.518000000     2.975000000
H     5.863000000     5.341000000     2.377000000
C     5.250000000     4.877000000     4.291000000
H     5.543000000     5.873000000     4.613000000
C     4.601000000     3.975000000     5.140000000
H     4.505000000     4.061000000     6.219000000
C     4.298000000     2.728000000     4.674000000
O     3.873000000     1.780000000     5.587000000
C     2.552000000     1.233000000     5.573000000
C     2.241000000     0.268000000     6.500000000
H     3.012000000     0.016000000     7.223000000
C     1.003000000    -0.375000000     6.456000000
O     0.850000000    -1.585000000     7.255000000
C     0.056000000    -2.664000000     6.893000000
C     0.328000000    -3.380000000     5.778000000
H     1.237000000    -3.166000000     5.222000000
C    -1.005000000    -2.942000000     7.672000000
H    -1.375000000    -2.321000000     8.484000000
C    -1.898000000    -3.997000000     7.255000000
H    -2.841000000    -4.098000000     7.787000000
C    -1.575000000    -4.799000000     6.160000000
H    -2.112000000    -5.730000000     5.995000000
C    -0.519000000    -4.441000000     5.351000000
O    -0.304000000    -5.208000000     4.224000000
C    -0.754000000    -4.969000000     2.905000000
C    -0.399000000    -5.955000000     2.009000000
H     0.223000000    -6.760000000     2.392000000
C    -0.803000000    -5.819000000     0.628000000
O    -0.325000000    -6.703000000    -0.359000000
C    -0.557000000    -6.561000000    -1.739000000
C     0.363000000    -5.822000000    -2.509000000
H     1.165000000    -5.274000000    -2.020000000
C    -1.579000000    -7.281000000    -2.399000000
H    -2.119000000    -7.991000000    -1.778000000
C    -1.890000000    -7.113000000    -3.810000000
H    -2.681000000    -7.696000000    -4.274000000
C    -1.011000000    -6.354000000    -4.513000000
H    -1.024000000    -6.355000000    -5.600000000
C     0.101000000    -5.791000000    -3.858000000
O     0.949000000    -5.136000000    -4.606000000
C     1.053000000    -3.786000000    -4.510000000
C     2.310000000    -3.243000000    -4.727000000
H     3.149000000    -3.935000000    -4.720000000
C     2.554000000    -1.849000000    -4.740000000
O     3.829000000    -1.422000000    -4.872000000
C     4.112000000    -0.096000000    -5.162000000
C     3.918000000     0.387000000    -6.493000000
H     3.401000000    -0.205000000    -7.243000000
C     4.301000000     1.685000000    -6.775000000
H     4.018000000     2.240000000    -7.666000000
C     4.880000000     2.418000000    -5.779000000
H     5.133000000     3.464000000    -5.933000000
C     5.119000000     1.962000000    -4.468000000
C     4.710000000     0.669000000    -4.184000000
H     4.821000000     0.239000000    -3.192000000
O     4.002000000    -3.185000000     4.094000000
H     3.327000000    -3.724000000     3.681000000
H     4.128000000    -2.454000000     3.489000000
O     5.953000000    -5.764000000    -2.503000000
H     5.677000000    -5.798000000    -3.419000000
H     6.421000000    -4.932000000    -2.425000000
O     4.818000000    -2.091000000    -2.044000000
H     5.045000000    -1.709000000    -1.196000000
H     5.604000000    -1.974000000    -2.578000000
O     7.627000000     0.004000000     1.707000000
H     6.744000000    -0.363000000     1.745000000
H     7.808000000     0.096000000     0.772000000
O     9.691000000     1.570000000    -1.874000000
H    10.186000000     0.764000000    -1.732000000
H     8.849000000     1.413000000    -1.447000000
O     5.469000000    -6.696000000     3.429000000
H     5.260000000    -5.858000000     3.016000000
H     4.626000000    -7.024000000     3.743000000
O     8.670000000    -5.193000000    -1.168000000
H     9.469000000    -5.068000000    -0.655000000
H     8.073000000    -4.516000000    -0.849000000
O     7.829000000     1.245000000     4.564000000
H     6.986000000     1.442000000     4.973000000
H     7.616000000     1.079000000     3.645000000
O     2.802000000    -4.839000000     2.356000000
H     2.643000000    -5.085000000     1.445000000
H     2.686000000    -5.652000000     2.847000000
O     7.580000000    -1.934000000    -3.629000000
H     8.024000000    -1.525000000    -4.373000000
H     7.650000000    -2.874000000    -3.795000000
O     4.088000000    -6.497000000    -0.495000000
H     3.506000000    -5.738000000    -0.456000000
H     4.620000000    -6.351000000    -1.277000000
O    10.369000000    -0.545000000     2.800000000
H     9.493000000    -0.593000000     2.417000000
H    10.263000000     0.010000000     3.573000000
O     7.459000000    -3.094000000     0.358000000
H     8.207000000    -2.662000000    -0.054000000
H     6.717000000    -2.520000000     0.170000000
O     7.909000000    -2.976000000     3.084000000
H     7.555000000    -2.092000000     3.185000000
H     7.894000000    -3.133000000     2.141000000
O     3.801000000    -4.344000000     6.796000000
H     3.898000000    -4.340000000     5.843000000
H     4.025000000    -3.453000000     7.063000000
O     5.637000000    -1.046000000     4.969000000
H     5.447000000    -0.754000000     4.077000000
H     5.342000000    -1.956000000     4.991000000
O     8.880000000    -1.459000000     6.221000000
H     9.675000000    -1.781000000     5.795000000
H     8.410000000    -0.992000000     5.529000000
O     7.333000000    -0.031000000    -1.411000000
H     6.452000000    -0.177000000    -1.066000000
H     7.478000000    -0.762000000    -2.013000000
O     3.010000000    -3.816000000    -0.801000000
H     3.570000000    -3.385000000    -1.446000000
H     2.478000000    -3.109000000    -0.435000000
