201
-1242.45969
C    -0.805000000     1.594000000     4.856000000
H    -1.762000000     1.207000000     5.196000000
C    -0.522000000     2.336000000     3.662000000
C     0.722000000     2.897000000     3.393000000
H     0.825000000     3.393000000     2.431000000
C    -1.693000000     2.568000000     2.669000000
O    -2.974000000     2.225000000     3.194000000
H    -1.525000000     1.732000000     1.974000000
O    -1.718000000     3.782000000     1.910000000
C    -2.069000000     3.816000000     0.569000000
C    -1.031000000     4.240000000    -0.266000000
H    -0.119000000     4.593000000     0.208000000
C    -1.175000000     4.214000000    -1.610000000
O    -0.103000000     4.584000000    -2.391000000
C    -2.365000000     3.734000000    -2.191000000
C    -2.437000000     3.563000000    -3.634000000
H    -3.457000000     3.544000000    -4.024000000
C    -1.855000000     2.199000000    -4.134000000
C    -2.707000000     1.091000000    -4.327000000
H    -3.773000000     1.190000000    -4.139000000
H    -1.987000000     4.420000000    -4.141000000
C    -3.513000000     3.476000000    -1.387000000
H    -4.499000000     3.287000000    -1.803000000
C    -3.329000000     3.501000000    -0.028000000
C    -4.542000000     3.079000000     0.902000000
H    -5.549000000     3.252000000     0.515000000
H    -4.572000000     3.835000000     1.688000000
C    -4.420000000     1.664000000     1.271000000
C    -4.990000000     0.716000000     0.450000000
H    -5.336000000     1.026000000    -0.533000000
C    -3.647000000     1.292000000     2.421000000
C    -3.507000000    -0.041000000     2.730000000
H    -2.961000000    -0.420000000     3.591000000
C    -4.196000000    -0.923000000     1.980000000
O    -4.095000000    -2.270000000     2.311000000
C    -3.015000000    -3.040000000     1.630000000
C    -2.139000000    -3.856000000     2.645000000
C    -1.424000000    -4.959000000     2.117000000
H    -1.506000000    -5.230000000     1.067000000
C    -1.867000000    -3.410000000     3.974000000
H    -2.488000000    -2.655000000     4.451000000
O    -3.485000000    -3.819000000     0.519000000
H    -2.342000000    -2.228000000     1.317000000
C    -4.896000000    -0.618000000     0.823000000
C    -5.392000000    -1.651000000    -0.140000000
H    -6.283000000    -1.322000000    -0.680000000
H    -5.832000000    -2.490000000     0.403000000
C    -4.261000000    -2.110000000    -0.990000000
C    -4.135000000    -1.531000000    -2.235000000
H    -4.831000000    -0.797000000    -2.631000000
C    -3.431000000    -3.199000000    -0.715000000
C    -2.411000000    -3.629000000    -1.539000000
H    -1.795000000    -4.509000000    -1.373000000
C    -2.224000000    -2.992000000    -2.787000000
O    -1.043000000    -3.226000000    -3.471000000
C    -0.033000000    -2.244000000    -3.629000000
C     1.376000000    -2.760000000    -3.244000000
C     1.685000000    -3.269000000    -1.929000000
H     0.895000000    -3.573000000    -1.246000000
C     2.503000000    -2.424000000    -4.094000000
H     2.416000000    -1.942000000    -5.064000000
O    -0.174000000    -1.443000000    -4.884000000
H    -0.325000000    -1.573000000    -2.808000000
C    -3.174000000    -1.968000000    -3.122000000
C    -3.063000000    -1.399000000    -4.497000000
H    -4.017000000    -1.036000000    -4.884000000
H    -2.770000000    -2.221000000    -5.154000000
C    -2.140000000    -0.157000000    -4.549000000
C    -0.764000000    -0.243000000    -4.661000000
C     0.097000000     0.820000000    -4.649000000
H     1.160000000     0.676000000    -4.826000000
C    -0.478000000     2.057000000    -4.369000000
O     0.395000000     3.058000000    -4.176000000
C     0.622000000     3.441000000    -2.817000000
H     0.204000000     2.607000000    -2.232000000
C     2.126000000     3.642000000    -2.429000000
C     2.569000000     4.413000000    -1.339000000
H     1.823000000     4.915000000    -0.728000000
C     3.089000000     3.022000000    -3.204000000
H     2.746000000     2.421000000    -4.042000000
C     4.455000000     3.175000000    -2.954000000
O     5.521000000     2.640000000    -3.687000000
C     4.913000000     4.041000000    -1.953000000
H     5.959000000     4.158000000    -1.682000000
C     3.934000000     4.621000000    -1.140000000
O     4.403000000     5.486000000    -0.131000000
C     3.753000000     5.524000000     1.115000000
C     3.828000000     4.379000000     1.913000000
H     4.279000000     3.442000000     1.598000000
C     3.313000000     6.774000000     1.605000000
H     3.480000000     7.743000000     1.142000000
C     2.774000000     6.845000000     2.877000000
H     2.371000000     7.745000000     3.335000000
C     2.719000000     5.670000000     3.650000000
H     2.305000000     5.789000000     4.648000000
C     3.132000000     4.464000000     3.135000000
O     3.032000000     3.340000000     3.974000000
C     1.795000000     2.830000000     4.313000000
C     1.563000000     2.093000000     5.443000000
H     2.392000000     1.884000000     6.114000000
C     0.319000000     1.464000000     5.713000000
O     0.193000000     0.728000000     6.895000000
C    -0.604000000    -0.353000000     7.025000000
C    -0.210000000    -1.547000000     6.498000000
H     0.738000000    -1.603000000     5.970000000
C    -1.881000000    -0.178000000     7.573000000
H    -2.158000000     0.841000000     7.832000000
C    -2.736000000    -1.291000000     7.683000000
H    -3.716000000    -1.179000000     8.140000000
C    -2.246000000    -2.515000000     7.338000000
H    -2.853000000    -3.390000000     7.558000000
C    -1.060000000    -2.658000000     6.685000000
O    -0.791000000    -3.875000000     6.141000000
C    -0.921000000    -4.100000000     4.754000000
C    -0.229000000    -5.157000000     4.195000000
H     0.585000000    -5.595000000     4.768000000
C    -0.453000000    -5.633000000     2.893000000
O     0.314000000    -6.646000000     2.395000000
C     1.146000000    -6.555000000     1.295000000
C     1.892000000    -5.460000000     1.084000000
H     1.840000000    -4.596000000     1.742000000
C     1.170000000    -7.629000000     0.401000000
H     0.643000000    -8.542000000     0.665000000
C     1.924000000    -7.637000000    -0.727000000
H     1.968000000    -8.467000000    -1.428000000
C     2.678000000    -6.460000000    -1.047000000
H     3.204000000    -6.416000000    -1.996000000
C     2.611000000    -5.341000000    -0.149000000
O     3.264000000    -4.220000000    -0.475000000
C     3.028000000    -3.532000000    -1.600000000
C     4.071000000    -3.084000000    -2.359000000
H     5.086000000    -3.295000000    -2.033000000
C     3.818000000    -2.528000000    -3.593000000
O     4.849000000    -2.146000000    -4.412000000
C     5.068000000    -0.920000000    -4.877000000
C     5.468000000    -0.749000000    -6.192000000
H     5.629000000    -1.623000000    -6.818000000
C     5.606000000     0.520000000    -6.687000000
H     5.858000000     0.652000000    -7.736000000
C     5.567000000     1.669000000    -5.837000000
H     5.785000000     2.676000000    -6.181000000
C     5.336000000     1.479000000    -4.519000000
C     5.048000000     0.196000000    -4.016000000
H     4.907000000     0.059000000    -2.946000000
O     4.357000000    -3.725000000     4.257000000
H     4.171000000    -4.375000000     3.579000000
H     4.284000000    -2.883000000     3.808000000
O     6.423000000    -3.583000000     1.454000000
H     6.997000000    -3.341000000     2.180000000
H     5.887000000    -2.805000000     1.302000000
O     4.768000000     0.852000000     7.266000000
H     4.228000000     1.578000000     7.579000000
H     4.141000000     0.158000000     7.063000000
O     6.640000000     3.133000000     1.056000000
H     7.370000000     3.456000000     0.528000000
H     6.926000000     2.271000000     1.359000000
O     3.676000000    -5.704000000     6.322000000
H     4.104000000    -6.522000000     6.070000000
H     3.809000000    -5.123000000     5.573000000
O     8.062000000    -3.127000000    -1.266000000
H     7.255000000    -2.660000000    -1.052000000
H     7.840000000    -3.648000000    -2.038000000
O     7.450000000    -5.868000000     0.497000000
H     7.078000000    -5.003000000     0.672000000
H     7.416000000    -6.318000000     1.341000000
O     6.485000000     3.779000000     3.836000000
H     5.840000000     3.105000000     4.050000000
H     6.601000000     3.708000000     2.888000000
O     4.041000000    -6.069000000     2.936000000
H     4.954000000    -5.876000000     2.722000000
H     4.087000000    -6.819000000     3.528000000
O     6.152000000    -1.146000000    -0.734000000
H     6.688000000    -0.354000000    -0.784000000
H     5.715000000    -1.087000000     0.115000000
O     5.781000000    -0.126000000     4.925000000
H     5.019000000    -0.441000000     4.439000000
H     5.414000000     0.275000000     5.713000000
O     7.184000000     0.402000000     2.213000000
H     7.152000000     0.277000000     3.161000000
H     6.408000000    -0.052000000     1.885000000
O     8.601000000     0.868000000     5.018000000
H     7.701000000     0.573000000     5.155000000
H     8.998000000     0.842000000     5.889000000
O     9.370000000    -1.511000000     1.690000000
H     8.772000000    -0.771000000     1.588000000
H     8.888000000    -2.137000000     2.230000000
O     7.379000000     1.184000000    -1.116000000
H     6.838000000     1.623000000    -1.772000000
H     8.274000000     1.450000000    -1.326000000
O     8.242000000    -3.899000000     3.463000000
H     7.825000000    -3.587000000     4.265000000
H     8.891000000    -4.536000000     3.762000000
O     3.105000000    -1.160000000     5.804000000
H     3.401000000    -2.004000000     6.143000000
H     3.295000000    -1.199000000     4.866000000
O     6.691000000    -2.785000000     5.316000000
H     5.917000000    -3.228000000     4.967000000
H     6.505000000    -1.853000000     5.199000000
O     6.789000000    -6.620000000     3.211000000
H     6.973000000    -5.924000000     3.842000000
H     6.429000000    -7.333000000     3.740000000
