201
-1245.87647
C    -0.595000000     1.544000000     4.548000000
H    -1.381000000     0.809000000     4.697000000
C    -0.614000000     2.468000000     3.534000000
C     0.512000000     3.317000000     3.286000000
H     0.519000000     4.024000000     2.460000000
C    -1.892000000     2.547000000     2.658000000
O    -3.042000000     1.948000000     3.274000000
H    -1.622000000     1.888000000     1.820000000
O    -2.103000000     3.881000000     2.086000000
C    -2.395000000     3.904000000     0.768000000
C    -1.498000000     4.463000000    -0.080000000
H    -0.731000000     5.028000000     0.444000000
C    -1.570000000     4.354000000    -1.443000000
O    -0.487000000     4.762000000    -2.207000000
C    -2.693000000     3.814000000    -2.095000000
C    -2.730000000     3.576000000    -3.552000000
H    -3.771000000     3.599000000    -3.882000000
C    -2.010000000     2.311000000    -3.988000000
C    -2.762000000     1.126000000    -4.105000000
H    -3.819000000     1.176000000    -3.860000000
H    -2.168000000     4.422000000    -3.953000000
C    -3.709000000     3.330000000    -1.223000000
H    -4.594000000     2.782000000    -1.536000000
C    -3.553000000     3.340000000     0.199000000
C    -4.687000000     2.779000000     1.024000000
H    -5.581000000     2.899000000     0.409000000
H    -4.953000000     3.404000000     1.879000000
C    -4.474000000     1.283000000     1.352000000
C    -4.984000000     0.309000000     0.507000000
H    -5.518000000     0.568000000    -0.404000000
C    -3.740000000     0.981000000     2.522000000
C    -3.492000000    -0.402000000     2.758000000
H    -2.805000000    -0.619000000     3.572000000
C    -3.960000000    -1.390000000     1.975000000
O    -3.569000000    -2.634000000     2.367000000
C    -2.494000000    -3.089000000     1.648000000
C    -1.600000000    -3.935000000     2.574000000
C    -0.809000000    -4.876000000     1.974000000
H    -0.833000000    -5.072000000     0.905000000
C    -1.570000000    -3.705000000     3.944000000
H    -2.278000000    -2.999000000     4.371000000
O    -3.017000000    -3.967000000     0.597000000
H    -1.819000000    -2.303000000     1.277000000
C    -4.725000000    -1.023000000     0.823000000
C    -5.206000000    -2.192000000    -0.047000000
H    -6.056000000    -1.782000000    -0.596000000
H    -5.559000000    -3.079000000     0.485000000
C    -4.064000000    -2.533000000    -0.991000000
C    -3.997000000    -1.870000000    -2.182000000
H    -4.819000000    -1.218000000    -2.467000000
C    -3.046000000    -3.440000000    -0.645000000
C    -2.044000000    -3.728000000    -1.537000000
H    -1.227000000    -4.331000000    -1.150000000
C    -1.956000000    -2.955000000    -2.684000000
O    -0.823000000    -3.162000000    -3.424000000
C     0.222000000    -2.131000000    -3.550000000
C     1.535000000    -2.741000000    -3.440000000
C     1.717000000    -4.001000000    -2.829000000
H     0.854000000    -4.529000000    -2.431000000
C     2.658000000    -1.889000000    -3.562000000
H     2.610000000    -0.852000000    -3.883000000
O    -0.026000000    -1.360000000    -4.725000000
H     0.135000000    -1.532000000    -2.631000000
C    -2.947000000    -2.050000000    -3.048000000
C    -3.005000000    -1.345000000    -4.382000000
H    -4.054000000    -1.134000000    -4.597000000
H    -2.683000000    -2.025000000    -5.174000000
C    -2.157000000    -0.129000000    -4.340000000
C    -0.753000000    -0.118000000    -4.571000000
C    -0.038000000     1.089000000    -4.573000000
H     1.044000000     1.048000000    -4.666000000
C    -0.643000000     2.261000000    -4.177000000
O     0.160000000     3.375000000    -3.888000000
C     0.468000000     3.750000000    -2.540000000
H     0.288000000     2.895000000    -1.872000000
C     1.952000000     4.155000000    -2.434000000
C     2.391000000     5.114000000    -1.500000000
H     1.675000000     5.686000000    -0.916000000
C     2.916000000     3.562000000    -3.241000000
H     2.497000000     2.896000000    -3.991000000
C     4.282000000     3.663000000    -3.000000000
O     5.381000000     3.203000000    -3.815000000
C     4.664000000     4.581000000    -2.049000000
H     5.729000000     4.751000000    -1.915000000
C     3.756000000     5.273000000    -1.268000000
O     4.164000000     6.185000000    -0.268000000
C     3.731000000     6.106000000     1.065000000
C     3.341000000     4.915000000     1.615000000
H     3.227000000     4.049000000     0.968000000
C     3.939000000     7.151000000     1.898000000
H     4.181000000     8.047000000     1.331000000
C     3.689000000     7.185000000     3.283000000
H     3.790000000     8.131000000     3.809000000
C     3.301000000     5.982000000     3.867000000
H     3.104000000     5.763000000     4.913000000
C     3.138000000     4.846000000     3.042000000
O     2.934000000     3.615000000     3.676000000
C     1.721000000     2.969000000     3.884000000
C     1.726000000     2.072000000     4.919000000
H     2.650000000     1.881000000     5.459000000
C     0.587000000     1.443000000     5.302000000
O     0.659000000     0.456000000     6.263000000
C    -0.240000000    -0.543000000     6.575000000
C    -0.107000000    -1.813000000     5.962000000
H     0.631000000    -1.970000000     5.180000000
C    -1.282000000    -0.288000000     7.457000000
H    -1.294000000     0.712000000     7.882000000
C    -2.033000000    -1.321000000     8.006000000
H    -2.731000000    -1.029000000     8.786000000
C    -1.713000000    -2.656000000     7.683000000
H    -2.299000000    -3.520000000     7.986000000
C    -0.845000000    -2.888000000     6.567000000
O    -0.678000000    -4.199000000     6.115000000
C    -0.707000000    -4.428000000     4.748000000
C     0.042000000    -5.435000000     4.114000000
H     0.718000000    -6.089000000     4.658000000
C    -0.017000000    -5.678000000     2.764000000
O     0.818000000    -6.661000000     2.261000000
C     0.909000000    -6.817000000     0.923000000
C     1.944000000    -6.131000000     0.351000000
H     2.643000000    -5.532000000     0.929000000
C    -0.025000000    -7.515000000     0.184000000
H    -0.892000000    -7.893000000     0.720000000
C     0.104000000    -7.571000000    -1.194000000
H    -0.597000000    -8.105000000    -1.829000000
C     1.190000000    -6.942000000    -1.786000000
H     1.221000000    -6.910000000    -2.872000000
C     2.131000000    -6.333000000    -1.067000000
O     3.130000000    -5.660000000    -1.755000000
C     2.994000000    -4.403000000    -2.352000000
C     4.117000000    -3.646000000    -2.575000000
H     5.080000000    -3.969000000    -2.186000000
C     3.937000000    -2.374000000    -3.077000000
O     5.087000000    -1.469000000    -3.185000000
C     5.154000000    -0.389000000    -4.016000000
C     5.168000000    -0.605000000    -5.348000000
H     5.160000000    -1.644000000    -5.668000000
C     5.227000000     0.482000000    -6.195000000
H     5.231000000     0.379000000    -7.277000000
C     5.396000000     1.726000000    -5.684000000
H     5.479000000     2.643000000    -6.263000000
C     5.355000000     1.951000000    -4.332000000
C     5.273000000     0.869000000    -3.465000000
H     5.244000000     0.999000000    -2.386000000
O     7.794000000    -3.724000000    -0.042000000
H     7.504000000    -4.034000000    -0.900000000
H     7.695000000    -2.773000000    -0.085000000
O     7.019000000    -1.033000000     4.418000000
H     6.738000000    -0.140000000     4.617000000
H     6.269000000    -1.426000000     3.972000000
O     9.891000000     2.224000000     0.480000000
H     9.666000000     3.086000000     0.831000000
H    10.475000000     1.843000000     1.136000000
O     7.029000000    -1.189000000     0.188000000
H     6.548000000    -0.471000000     0.600000000
H     7.865000000    -0.801000000    -0.071000000
O     6.216000000    -0.883000000     7.502000000
H     5.707000000    -0.349000000     8.112000000
H     5.591000000    -1.128000000     6.820000000
O     8.417000000     4.261000000     2.757000000
H     9.343000000     4.085000000     2.922000000
H     8.004000000     3.397000000     2.767000000
O     2.742000000    -3.094000000     7.357000000
H     2.360000000    -2.712000000     8.147000000
H     3.258000000    -2.385000000     6.974000000
O     4.052000000    -3.209000000     3.699000000
H     3.754000000    -4.114000000     3.605000000
H     4.610000000    -3.060000000     2.936000000
O     7.907000000    -3.269000000     5.591000000
H     7.666000000    -2.382000000     5.326000000
H     8.684000000    -3.473000000     5.069000000
O     6.698000000     5.703000000     5.275000000
H     6.217000000     5.006000000     4.829000000
H     7.265000000     6.073000000     4.599000000
O     4.833000000    -3.460000000     0.570000000
H     5.388000000    -4.163000000     0.232000000
H     5.213000000    -2.660000000     0.208000000
O     8.289000000     1.126000000    -1.444000000
H     7.483000000     1.596000000    -1.230000000
H     8.942000000     1.486000000    -0.845000000
O     5.722000000     3.004000000     4.340000000
H     4.921000000     3.487000000     4.135000000
H     5.514000000     2.094000000     4.128000000
O     9.700000000     2.054000000     4.507000000
H     9.607000000     1.466000000     5.257000000
H     8.808000000     2.157000000     4.173000000
O     3.278000000     0.144000000     7.949000000
H     2.825000000    -0.210000000     7.183000000
H     2.983000000    -0.405000000     8.676000000
O     8.212000000     0.897000000     6.536000000
H     8.044000000     1.798000000     6.813000000
H     7.453000000     0.405000000     6.849000000
O     7.750000000     1.427000000     2.803000000
H     8.157000000     0.604000000     3.071000000
H     6.850000000     1.189000000     2.583000000
O     5.952000000     2.369000000    -0.425000000
H     5.554000000     3.153000000    -0.046000000
H     5.906000000     1.716000000     0.273000000
O     4.078000000    -1.256000000     5.516000000
H     3.984000000    -2.074000000     5.028000000
H     4.082000000    -0.575000000     4.843000000
