201
-1233.95144
C    -0.574000000     2.513000000     4.393000000
H    -1.371000000     1.821000000     4.652000000
C    -0.689000000     3.285000000     3.222000000
C     0.320000000     4.075000000     2.881000000
H     0.404000000     4.483000000     1.877000000
C    -1.839000000     3.167000000     2.262000000
O    -3.119000000     2.767000000     2.918000000
H    -1.572000000     2.348000000     1.579000000
O    -1.987000000     4.382000000     1.490000000
C    -2.159000000     4.153000000     0.105000000
C    -1.042000000     4.399000000    -0.659000000
H    -0.118000000     4.702000000    -0.172000000
C    -1.115000000     4.102000000    -2.029000000
O     0.013000000     4.263000000    -2.743000000
C    -2.222000000     3.497000000    -2.596000000
C    -2.276000000     3.098000000    -4.031000000
H    -3.331000000     3.210000000    -4.290000000
C    -1.643000000     1.712000000    -4.353000000
C    -2.464000000     0.600000000    -4.380000000
H    -3.540000000     0.755000000    -4.356000000
H    -1.795000000     3.816000000    -4.699000000
C    -3.322000000     3.213000000    -1.779000000
H    -4.185000000     2.663000000    -2.145000000
C    -3.315000000     3.587000000    -0.471000000
C    -4.508000000     3.188000000     0.415000000
H    -5.449000000     3.185000000    -0.140000000
H    -4.715000000     3.919000000     1.200000000
C    -4.304000000     1.894000000     0.997000000
C    -4.845000000     0.787000000     0.290000000
H    -5.406000000     0.909000000    -0.633000000
C    -3.745000000     1.719000000     2.209000000
C    -3.614000000     0.463000000     2.760000000
H    -3.085000000     0.274000000     3.691000000
C    -4.110000000    -0.667000000     2.149000000
O    -3.802000000    -1.880000000     2.766000000
C    -2.792000000    -2.749000000     2.200000000
C    -1.890000000    -3.464000000     3.188000000
C    -1.291000000    -4.667000000     2.785000000
H    -1.674000000    -5.050000000     1.842000000
C    -1.541000000    -2.911000000     4.387000000
H    -1.910000000    -1.931000000     4.678000000
O    -3.248000000    -3.556000000     1.123000000
H    -2.018000000    -2.170000000     1.675000000
C    -4.734000000    -0.493000000     0.880000000
C    -5.246000000    -1.686000000     0.114000000
H    -6.121000000    -1.512000000    -0.517000000
H    -5.573000000    -2.395000000     0.877000000
C    -4.140000000    -2.337000000    -0.755000000
C    -4.091000000    -1.988000000    -2.082000000
H    -4.883000000    -1.346000000    -2.461000000
C    -3.131000000    -3.101000000    -0.175000000
C    -2.162000000    -3.639000000    -0.979000000
H    -1.387000000    -4.224000000    -0.490000000
C    -2.001000000    -3.102000000    -2.256000000
O    -0.935000000    -3.570000000    -2.998000000
C     0.250000000    -2.828000000    -3.181000000
C     1.515000000    -3.626000000    -3.123000000
C     1.596000000    -4.708000000    -2.255000000
H     0.682000000    -4.968000000    -1.727000000
C     2.681000000    -3.219000000    -3.712000000
H     2.699000000    -2.401000000    -4.427000000
O     0.106000000    -2.006000000    -4.363000000
H     0.229000000    -2.110000000    -2.347000000
C    -3.033000000    -2.345000000    -2.853000000
C    -2.887000000    -1.759000000    -4.247000000
H    -3.888000000    -1.427000000    -4.531000000
H    -2.463000000    -2.539000000    -4.883000000
C    -1.925000000    -0.632000000    -4.404000000
C    -0.542000000    -0.820000000    -4.371000000
C     0.281000000     0.281000000    -4.415000000
H     1.342000000     0.053000000    -4.466000000
C    -0.222000000     1.535000000    -4.392000000
O     0.652000000     2.564000000    -4.299000000
C     0.892000000     3.110000000    -2.957000000
H     0.777000000     2.320000000    -2.200000000
C     2.360000000     3.331000000    -2.692000000
C     2.833000000     4.461000000    -2.032000000
H     2.139000000     5.215000000    -1.669000000
C     3.308000000     2.362000000    -3.082000000
H     2.958000000     1.473000000    -3.601000000
C     4.609000000     2.481000000    -2.639000000
O     5.491000000     1.482000000    -2.972000000
C     5.089000000     3.591000000    -2.003000000
H     6.139000000     3.619000000    -1.724000000
C     4.168000000     4.576000000    -1.652000000
O     4.510000000     5.686000000    -0.956000000
C     3.736000000     6.146000000     0.124000000
C     3.348000000     5.327000000     1.176000000
H     3.586000000     4.267000000     1.223000000
C     3.430000000     7.510000000     0.166000000
H     3.779000000     8.183000000    -0.613000000
C     2.616000000     8.022000000     1.185000000
H     2.292000000     9.060000000     1.205000000
C     2.227000000     7.234000000     2.251000000
H     1.757000000     7.688000000     3.120000000
C     2.725000000     5.897000000     2.274000000
O     2.468000000     5.162000000     3.434000000
C     1.436000000     4.261000000     3.759000000
C     1.446000000     3.602000000     4.934000000
H     2.277000000     3.826000000     5.598000000
C     0.479000000     2.700000000     5.213000000
O     0.517000000     1.923000000     6.383000000
C    -0.216000000     0.865000000     6.775000000
C     0.079000000    -0.411000000     6.232000000
H     0.815000000    -0.492000000     5.436000000
C    -1.026000000     0.945000000     7.881000000
H    -1.287000000     1.933000000     8.251000000
C    -1.727000000    -0.146000000     8.400000000
H    -2.455000000     0.037000000     9.186000000
C    -1.450000000    -1.423000000     7.871000000
H    -1.839000000    -2.350000000     8.283000000
C    -0.550000000    -1.535000000     6.812000000
O    -0.210000000    -2.806000000     6.410000000
C    -0.606000000    -3.422000000     5.235000000
C     0.069000000    -4.608000000     4.807000000
H     0.855000000    -5.029000000     5.428000000
C    -0.304000000    -5.271000000     3.572000000
O     0.290000000    -6.481000000     3.190000000
C     0.498000000    -6.854000000     1.880000000
C     1.547000000    -6.309000000     1.165000000
H     2.147000000    -5.498000000     1.569000000
C    -0.325000000    -7.829000000     1.341000000
H    -1.174000000    -8.239000000     1.881000000
C    -0.084000000    -8.197000000     0.028000000
H    -0.783000000    -8.846000000    -0.494000000
C     0.986000000    -7.695000000    -0.788000000
H     1.073000000    -8.038000000    -1.816000000
C     1.818000000    -6.732000000    -0.171000000
O     2.856000000    -6.192000000    -0.884000000
C     2.795000000    -5.296000000    -1.882000000
C     3.958000000    -4.842000000    -2.532000000
H     4.956000000    -5.149000000    -2.228000000
C     3.901000000    -3.796000000    -3.420000000
O     5.057000000    -3.123000000    -3.863000000
C     5.173000000    -1.881000000    -4.290000000
C     4.992000000    -1.587000000    -5.685000000
H     4.832000000    -2.427000000    -6.355000000
C     5.015000000    -0.279000000    -6.172000000
H     4.898000000    -0.159000000    -7.246000000
C     5.021000000     0.745000000    -5.249000000
H     4.878000000     1.770000000    -5.580000000
C     5.248000000     0.475000000    -3.871000000
C     5.377000000    -0.864000000    -3.406000000
H     5.756000000    -1.083000000    -2.411000000
O     6.328000000    -1.484000000     4.997000000
H     6.670000000    -1.721000000     5.859000000
H     5.400000000    -1.716000000     5.035000000
O     6.875000000     0.532000000     3.126000000
H     6.736000000    -0.146000000     3.787000000
H     6.006000000     0.908000000     2.982000000
O     8.350000000     4.792000000    -0.669000000
H     8.383000000     5.628000000    -0.203000000
H     7.668000000     4.294000000    -0.219000000
O     4.903000000     6.868000000     5.521000000
H     4.834000000     7.634000000     4.952000000
H     4.654000000     6.131000000     4.964000000
O     3.075000000     0.593000000     7.505000000
H     3.568000000    -0.208000000     7.683000000
H     2.234000000     0.459000000     7.941000000
O     9.516000000     0.278000000     2.650000000
H     8.672000000     0.161000000     3.085000000
H     9.360000000     0.970000000     2.007000000
O     3.513000000    -2.532000000     5.199000000
H     3.599000000    -3.323000000     5.731000000
H     3.235000000    -1.857000000     5.819000000
O     2.968000000    -2.230000000     2.297000000
H     2.650000000    -1.343000000     2.467000000
H     3.073000000    -2.617000000     3.166000000
O     8.022000000     3.008000000     3.811000000
H     7.671000000     2.118000000     3.802000000
H     7.249000000     3.571000000     3.783000000
O     7.921000000    -2.224000000    -0.250000000
H     8.294000000    -2.697000000    -0.993000000
H     7.275000000    -1.636000000    -0.641000000
O     5.424000000     4.542000000     4.045000000
H     4.779000000     3.861000000     4.237000000
H     5.348000000     4.686000000     3.102000000
O     4.917000000    -4.800000000     0.669000000
H     4.915000000    -3.860000000     0.489000000
H     4.882000000    -4.860000000     1.624000000
O     6.639000000     3.783000000     1.298000000
H     7.391000000     3.197000000     1.382000000
H     5.880000000     3.199000000     1.302000000
O     6.246000000     0.280000000    -0.361000000
H     5.839000000     0.842000000     0.299000000
H     6.057000000     0.714000000    -1.193000000
O     8.554000000     1.510000000     0.354000000
H     8.912000000     1.536000000    -0.533000000
H     7.753000000     0.992000000     0.274000000
O     8.063000000    -2.636000000     2.592000000
H     8.040000000    -2.340000000     1.682000000
H     7.525000000    -2.001000000     3.065000000
O     4.476000000     2.352000000     5.608000000
H     3.890000000     1.725000000     6.031000000
H     4.626000000     1.989000000     4.735000000
O     6.406000000     0.747000000     7.595000000
H     5.706000000     1.269000000     7.203000000
H     6.178000000     0.701000000     8.524000000
O     4.792000000    -2.169000000     0.352000000
H     4.231000000    -2.091000000     1.124000000
H     5.436000000    -1.469000000     0.453000000
