201
-1233.96790
C    -1.136000000     2.149000000     4.489000000
H    -1.683000000     1.252000000     4.209000000
C    -1.067000000     3.294000000     3.675000000
C    -0.086000000     4.275000000     3.965000000
H     0.023000000     5.137000000     3.312000000
C    -1.884000000     3.218000000     2.370000000
O    -3.251000000     2.852000000     2.662000000
H    -1.393000000     2.488000000     1.710000000
O    -1.904000000     4.505000000     1.734000000
C    -1.688000000     4.425000000     0.388000000
C    -0.347000000     4.500000000    -0.113000000
H     0.434000000     4.848000000     0.558000000
C    -0.096000000     4.412000000    -1.448000000
O     1.182000000     4.405000000    -1.931000000
C    -1.120000000     4.146000000    -2.348000000
C    -0.951000000     3.861000000    -3.841000000
H    -1.782000000     4.171000000    -4.477000000
C    -0.535000000     2.431000000    -4.199000000
C    -1.491000000     1.503000000    -4.546000000
H    -2.557000000     1.715000000    -4.509000000
H    -0.244000000     4.590000000    -4.242000000
C    -2.431000000     3.986000000    -1.856000000
H    -3.238000000     3.648000000    -2.502000000
C    -2.735000000     4.156000000    -0.525000000
C    -4.175000000     3.977000000     0.035000000
H    -4.894000000     4.114000000    -0.776000000
H    -4.296000000     4.604000000     0.921000000
C    -4.244000000     2.508000000     0.427000000
C    -4.764000000     1.568000000    -0.514000000
H    -5.092000000     1.931000000    -1.484000000
C    -3.846000000     2.037000000     1.689000000
C    -3.959000000     0.637000000     1.982000000
H    -3.800000000     0.342000000     3.016000000
C    -4.390000000    -0.254000000     1.048000000
O    -4.344000000    -1.567000000     1.377000000
C    -3.417000000    -2.449000000     0.754000000
C    -2.848000000    -3.449000000     1.812000000
C    -2.555000000    -4.751000000     1.501000000
H    -2.676000000    -5.127000000     0.489000000
C    -2.596000000    -3.056000000     3.144000000
H    -2.893000000    -2.064000000     3.475000000
O    -3.894000000    -3.178000000    -0.443000000
H    -2.585000000    -1.835000000     0.379000000
C    -4.759000000     0.190000000    -0.216000000
C    -5.251000000    -0.784000000    -1.281000000
H    -5.841000000    -0.229000000    -2.013000000
H    -5.865000000    -1.481000000    -0.707000000
C    -4.068000000    -1.437000000    -2.050000000
C    -3.674000000    -0.909000000    -3.256000000
H    -4.080000000     0.058000000    -3.544000000
C    -3.566000000    -2.652000000    -1.645000000
C    -2.646000000    -3.359000000    -2.343000000
H    -2.214000000    -4.313000000    -2.049000000
C    -2.101000000    -2.753000000    -3.484000000
O    -0.886000000    -3.246000000    -3.974000000
C     0.252000000    -2.355000000    -3.745000000
C     1.461000000    -3.131000000    -3.204000000
C     1.179000000    -4.081000000    -2.223000000
H     0.150000000    -4.252000000    -1.915000000
C     2.815000000    -2.803000000    -3.467000000
H     3.062000000    -2.208000000    -4.343000000
O     0.607000000    -1.482000000    -4.881000000
H    -0.043000000    -1.609000000    -2.992000000
C    -2.629000000    -1.542000000    -3.990000000
C    -2.140000000    -0.872000000    -5.236000000
H    -2.925000000    -0.319000000    -5.755000000
H    -1.776000000    -1.682000000    -5.871000000
C    -1.100000000     0.147000000    -4.895000000
C     0.233000000    -0.204000000    -4.796000000
C     1.176000000     0.719000000    -4.420000000
H     2.229000000     0.461000000    -4.509000000
C     0.816000000     2.008000000    -4.174000000
O     1.818000000     2.834000000    -3.688000000
C     1.787000000     3.129000000    -2.220000000
H     1.162000000     2.364000000    -1.736000000
C     3.157000000     2.950000000    -1.641000000
C     3.288000000     3.292000000    -0.266000000
H     2.516000000     3.812000000     0.295000000
C     4.279000000     2.304000000    -2.249000000
H     4.184000000     1.918000000    -3.261000000
C     5.416000000     2.034000000    -1.510000000
O     6.468000000     1.381000000    -2.103000000
C     5.577000000     2.453000000    -0.218000000
H     6.465000000     2.192000000     0.352000000
C     4.500000000     3.019000000     0.423000000
O     4.647000000     3.235000000     1.823000000
C     4.081000000     4.330000000     2.485000000
C     3.270000000     4.184000000     3.596000000
H     2.979000000     3.178000000     3.887000000
C     4.448000000     5.655000000     2.178000000
H     5.153000000     5.869000000     1.379000000
C     4.019000000     6.780000000     2.949000000
H     4.332000000     7.778000000     2.654000000
C     3.101000000     6.522000000     3.927000000
H     2.521000000     7.297000000     4.421000000
C     2.726000000     5.247000000     4.309000000
O     1.733000000     5.073000000     5.272000000
C     0.712000000     4.170000000     5.086000000
C     0.622000000     3.009000000     5.921000000
H     1.329000000     2.843000000     6.729000000
C    -0.281000000     2.000000000     5.608000000
O    -0.231000000     0.865000000     6.381000000
C    -1.228000000    -0.018000000     6.543000000
C    -1.090000000    -1.308000000     6.038000000
H    -0.089000000    -1.611000000     5.739000000
C    -2.451000000     0.433000000     6.958000000
H    -2.556000000     1.387000000     7.468000000
C    -3.492000000    -0.523000000     6.942000000
H    -4.484000000    -0.177000000     7.220000000
C    -3.420000000    -1.765000000     6.432000000
H    -4.271000000    -2.441000000     6.460000000
C    -2.142000000    -2.244000000     6.003000000
O    -1.904000000    -3.544000000     5.486000000
C    -2.065000000    -3.948000000     4.144000000
C    -1.850000000    -5.273000000     3.805000000
H    -1.411000000    -6.018000000     4.464000000
C    -2.046000000    -5.627000000     2.492000000
O    -1.620000000    -6.913000000     2.118000000
C    -0.984000000    -7.085000000     0.942000000
C     0.020000000    -6.174000000     0.588000000
H     0.090000000    -5.284000000     1.208000000
C    -1.113000000    -8.281000000     0.238000000
H    -1.859000000    -9.006000000     0.553000000
C    -0.194000000    -8.571000000    -0.805000000
H    -0.220000000    -9.563000000    -1.248000000
C     0.871000000    -7.656000000    -1.083000000
H     1.533000000    -7.731000000    -1.942000000
C     0.967000000    -6.467000000    -0.369000000
O     2.042000000    -5.575000000    -0.496000000
C     2.255000000    -4.699000000    -1.524000000
C     3.544000000    -4.240000000    -1.796000000
H     4.348000000    -4.742000000    -1.263000000
C     3.859000000    -3.389000000    -2.828000000
O     5.225000000    -3.166000000    -3.016000000
C     5.765000000    -1.937000000    -3.405000000
C     6.121000000    -1.710000000    -4.720000000
H     6.057000000    -2.483000000    -5.482000000
C     6.638000000    -0.505000000    -5.123000000
H     6.716000000    -0.260000000    -6.179000000
C     6.852000000     0.552000000    -4.225000000
H     7.005000000     1.603000000    -4.458000000
C     6.380000000     0.334000000    -2.980000000
C     5.775000000    -0.875000000    -2.520000000
H     5.473000000    -1.051000000    -1.490000000
O     5.073000000    -3.607000000     7.803000000
H     4.807000000    -3.234000000     8.643000000
H     5.319000000    -2.851000000     7.271000000
O     5.077000000    -4.686000000     3.736000000
H     5.313000000    -3.779000000     3.927000000
H     4.997000000    -4.718000000     2.783000000
O     4.865000000    -3.636000000     1.194000000
H     5.139000000    -2.720000000     1.221000000
H     5.621000000    -4.102000000     0.837000000
O     3.766000000    -0.803000000     8.035000000
H     2.912000000    -0.485000000     8.326000000
H     4.235000000    -1.005000000     8.844000000
O     1.121000000    -3.870000000     6.304000000
H     1.595000000    -3.184000000     5.833000000
H     0.215000000    -3.783000000     6.008000000
O     2.107000000    -3.497000000     1.930000000
H     2.027000000    -2.555000000     1.779000000
H     3.039000000    -3.680000000     1.812000000
O     6.946000000     1.583000000     3.265000000
H     6.049000000     1.291000000     3.425000000
H     7.205000000     1.132000000     2.461000000
O     6.243000000    -0.456000000     6.635000000
H     6.299000000     0.493000000     6.520000000
H     5.522000000    -0.580000000     7.253000000
O     7.759000000     4.409000000     2.444000000
H     7.094000000     3.816000000     2.793000000
H     8.391000000     3.833000000     2.014000000
O     8.253000000    -3.627000000     2.575000000
H     9.158000000    -3.694000000     2.877000000
H     8.093000000    -2.686000000     2.505000000
O     6.782000000     2.126000000     6.013000000
H     6.851000000     1.935000000     5.077000000
H     6.983000000     3.060000000     6.081000000
O     7.824000000    -1.005000000     1.746000000
H     7.877000000    -1.144000000     0.801000000
H     6.915000000    -0.744000000     1.899000000
O     9.119000000     0.299000000     5.764000000
H     9.355000000     0.106000000     4.856000000
H     8.624000000     1.116000000     5.714000000
O     4.235000000     2.564000000     6.413000000
H     3.762000000     2.175000000     5.678000000
H     5.158000000     2.410000000     6.212000000
O     6.127000000    -2.109000000     4.286000000
H     5.719000000    -1.545000000     3.630000000
H     6.088000000    -1.602000000     5.096000000
O    10.216000000    -0.876000000     3.325000000
H     9.581000000    -0.830000000     2.610000000
H    10.482000000    -1.795000000     3.351000000
O     8.514000000    -2.768000000     5.927000000
H     7.847000000    -3.124000000     5.339000000
H     8.340000000    -1.827000000     5.944000000
O     2.910000000    -2.178000000     5.440000000
H     2.997000000    -1.726000000     4.601000000
H     2.996000000    -1.486000000     6.096000000
O     2.264000000    -5.853000000     3.371000000
H     2.920000000    -5.508000000     3.977000000
H     1.988000000    -5.093000000     2.859000000
