201
-1226.21738
C    -1.882000000    -1.468000000    -4.436000000
H    -2.179000000    -0.503000000    -4.839000000
C    -2.397000000    -1.926000000    -3.183000000
C    -2.006000000    -3.228000000    -2.676000000
H    -2.287000000    -3.511000000    -1.665000000
C    -3.225000000    -0.866000000    -2.410000000
O    -3.747000000     0.171000000    -3.224000000
H    -2.558000000    -0.439000000    -1.646000000
O    -4.419000000    -1.339000000    -1.790000000
C    -4.601000000    -1.013000000    -0.484000000
C    -4.124000000    -1.959000000     0.434000000
H    -3.687000000    -2.890000000     0.081000000
C    -4.107000000    -1.610000000     1.741000000
O    -3.483000000    -2.471000000     2.607000000
C    -4.489000000    -0.328000000     2.203000000
C    -4.219000000     0.144000000     3.673000000
H    -4.970000000     0.846000000     4.039000000
C    -2.795000000     0.650000000     3.974000000
C    -2.541000000     1.952000000     3.825000000
H    -3.290000000     2.690000000     3.548000000
H    -4.433000000    -0.684000000     4.353000000
C    -4.868000000     0.611000000     1.233000000
H    -5.008000000     1.632000000     1.580000000
C    -5.020000000     0.240000000    -0.078000000
C    -5.458000000     1.224000000    -1.186000000
H    -6.188000000     1.956000000    -0.834000000
H    -5.868000000     0.628000000    -2.004000000
C    -4.257000000     1.964000000    -1.737000000
C    -3.784000000     3.130000000    -1.122000000
H    -4.170000000     3.370000000    -0.134000000
C    -3.564000000     1.464000000    -2.823000000
C    -2.470000000     2.203000000    -3.359000000
H    -1.949000000     1.944000000    -4.277000000
C    -2.018000000     3.305000000    -2.784000000
O    -0.803000000     3.834000000    -3.210000000
C     0.385000000     3.749000000    -2.403000000
C     1.573000000     3.337000000    -3.174000000
C     2.862000000     3.509000000    -2.674000000
H     2.998000000     4.171000000    -1.822000000
C     1.450000000     2.631000000    -4.336000000
H     0.463000000     2.483000000    -4.765000000
O     0.644000000     4.981000000    -1.611000000
H     0.282000000     2.909000000    -1.701000000
C    -2.660000000     3.729000000    -1.603000000
C    -2.188000000     5.016000000    -0.995000000
H    -3.045000000     5.448000000    -0.474000000
H    -1.815000000     5.636000000    -1.814000000
C    -1.047000000     4.900000000     0.040000000
C    -1.368000000     4.586000000     1.361000000
H    -2.393000000     4.492000000     1.711000000
C     0.319000000     4.909000000    -0.302000000
C     1.271000000     4.501000000     0.600000000
H     2.299000000     4.553000000     0.249000000
C     0.846000000     3.989000000     1.882000000
O     1.760000000     3.457000000     2.743000000
C     1.784000000     2.074000000     3.066000000
C     3.169000000     1.390000000     3.062000000
C     4.262000000     1.984000000     2.459000000
H     4.072000000     2.914000000     1.929000000
C     3.337000000     0.071000000     3.517000000
H     2.432000000    -0.417000000     3.872000000
O     1.133000000     1.900000000     4.380000000
H     1.274000000     1.495000000     2.281000000
C    -0.438000000     4.209000000     2.269000000
C    -0.822000000     3.909000000     3.752000000
H    -1.706000000     4.534000000     3.894000000
H     0.010000000     4.158000000     4.413000000
C    -1.208000000     2.456000000     4.066000000
C    -0.204000000     1.538000000     4.359000000
C    -0.491000000     0.134000000     4.288000000
H     0.349000000    -0.554000000     4.339000000
C    -1.815000000    -0.288000000     4.215000000
O    -2.006000000    -1.615000000     4.246000000
C    -2.151000000    -2.377000000     2.958000000
H    -1.575000000    -1.900000000     2.152000000
C    -1.462000000    -3.713000000     3.158000000
C    -1.843000000    -4.683000000     2.286000000
H    -2.614000000    -4.519000000     1.538000000
C    -0.385000000    -3.826000000     3.969000000
H     0.038000000    -2.956000000     4.464000000
C     0.228000000    -5.134000000     4.129000000
O     1.294000000    -5.257000000     4.923000000
C    -0.283000000    -6.206000000     3.369000000
H     0.162000000    -7.171000000     3.596000000
C    -1.263000000    -5.951000000     2.433000000
O    -1.388000000    -6.966000000     1.495000000
C    -1.792000000    -6.706000000     0.235000000
C    -0.970000000    -6.024000000    -0.693000000
H     0.051000000    -5.753000000    -0.438000000
C    -2.915000000    -7.429000000    -0.200000000
H    -3.498000000    -8.058000000     0.468000000
C    -3.325000000    -7.348000000    -1.555000000
H    -4.189000000    -7.884000000    -1.939000000
C    -2.621000000    -6.498000000    -2.441000000
H    -2.879000000    -6.498000000    -3.497000000
C    -1.501000000    -5.879000000    -1.968000000
O    -0.775000000    -5.281000000    -2.976000000
C    -1.169000000    -4.031000000    -3.445000000
C    -0.686000000    -3.635000000    -4.669000000
H     0.003000000    -4.159000000    -5.327000000
C    -1.049000000    -2.387000000    -5.173000000
O    -0.580000000    -2.079000000    -6.414000000
C    -0.322000000    -0.754000000    -6.757000000
C     0.862000000    -0.169000000    -6.342000000
H     1.542000000    -0.774000000    -5.748000000
C    -1.197000000    -0.095000000    -7.569000000
H    -2.090000000    -0.698000000    -7.713000000
C    -0.898000000     1.239000000    -8.018000000
H    -1.581000000     1.887000000    -8.562000000
C     0.289000000     1.840000000    -7.556000000
H     0.484000000     2.859000000    -7.881000000
C     1.181000000     1.122000000    -6.711000000
O     2.381000000     1.684000000    -6.344000000
C     2.585000000     2.196000000    -5.084000000
C     3.935000000     2.427000000    -4.627000000
H     4.845000000     2.069000000    -5.104000000
C     4.021000000     3.114000000    -3.452000000
O     5.243000000     3.197000000    -2.918000000
C     5.625000000     3.551000000    -1.617000000
C     5.854000000     2.502000000    -0.632000000
H     5.730000000     1.460000000    -0.917000000
C     5.876000000     4.879000000    -1.212000000
H     5.649000000     5.645000000    -1.948000000
C     6.456000000     5.107000000     0.061000000
H     6.680000000     6.134000000     0.338000000
C     6.640000000     4.083000000     0.999000000
H     6.971000000     4.214000000     2.026000000
C     6.350000000     2.764000000     0.612000000
O     6.503000000     1.828000000     1.533000000
C     5.479000000     1.317000000     2.296000000
C     5.731000000     0.016000000     2.744000000
H     6.671000000    -0.477000000     2.506000000
C     4.570000000    -0.637000000     3.313000000
O     4.637000000    -1.996000000     3.620000000
C     3.831000000    -2.622000000     4.516000000
C     4.286000000    -2.549000000     5.833000000
H     5.036000000    -1.854000000     6.202000000
C     3.660000000    -3.266000000     6.890000000
H     4.091000000    -3.204000000     7.886000000
C     2.669000000    -4.157000000     6.507000000
H     2.181000000    -4.774000000     7.257000000
C     2.288000000    -4.345000000     5.157000000
C     2.857000000    -3.492000000     4.152000000
H     2.595000000    -3.608000000     3.103000000
O     6.580000000     0.660000000    -6.132000000
H     6.744000000     0.578000000    -7.072000000
H     6.045000000    -0.103000000    -5.914000000
O     5.209000000    -3.055000000    -0.514000000
H     5.350000000    -2.124000000    -0.687000000
H     4.440000000    -3.282000000    -1.038000000
O     4.403000000    -5.301000000    -7.127000000
H     5.242000000    -5.524000000    -6.725000000
H     4.012000000    -4.665000000    -6.528000000
O     5.335000000    -6.939000000    -0.803000000
H     4.541000000    -6.599000000    -0.392000000
H     5.849000000    -6.159000000    -1.014000000
O     4.120000000    -0.039000000    -2.102000000
H     3.749000000    -0.739000000    -2.638000000
H     3.411000000     0.598000000    -2.015000000
O     7.859000000    -2.407000000    -3.756000000
H     8.728000000    -2.800000000    -3.677000000
H     7.758000000    -2.236000000    -4.693000000
O     4.618000000    -1.257000000    -5.592000000
H     4.126000000    -1.428000000    -6.395000000
H     4.022000000    -1.513000000    -4.888000000
O     7.050000000     0.820000000    -3.291000000
H     6.938000000     0.712000000    -4.235000000
H     6.176000000     0.677000000    -2.928000000
O     7.540000000    -1.044000000    -1.064000000
H     7.612000000    -1.649000000    -1.802000000
H     7.322000000    -0.202000000    -1.466000000
O     1.914000000    -5.680000000    -4.103000000
H     1.877000000    -6.478000000    -3.576000000
H     2.121000000    -4.987000000    -3.476000000
O     2.970000000    -5.571000000    -0.122000000
H     2.915000000    -4.844000000    -0.742000000
H     2.217000000    -6.123000000    -0.332000000
O     7.097000000    -4.745000000    -1.180000000
H     6.493000000    -4.052000000    -0.912000000
H     7.947000000    -4.310000000    -1.244000000
O     5.976000000    -4.425000000     2.160000000
H     6.716000000    -3.975000000     1.752000000
H     5.276000000    -4.372000000     1.510000000
O     2.028000000    -6.962000000    -6.854000000
H     2.382000000    -7.843000000    -6.977000000
H     2.796000000    -6.392000000    -6.859000000
O     0.506000000    -4.644000000    -7.913000000
H     1.165000000    -4.142000000    -7.434000000
H     0.716000000    -5.559000000    -7.723000000
O     6.106000000    -6.659000000    -4.614000000
H     5.789000000    -5.805000000    -4.322000000
H     6.010000000    -7.225000000    -3.848000000
O     5.272000000    -4.088000000    -3.828000000
H     5.856000000    -3.332000000    -3.765000000
H     4.500000000    -3.836000000    -3.321000000
O     7.021000000    -2.595000000    -6.436000000
H     6.227000000    -2.445000000    -5.923000000
H     7.122000000    -3.546000000    -6.449000000
O     2.763000000    -3.812000000    -5.787000000
H     3.120000000    -3.215000000    -5.130000000
H     2.428000000    -4.552000000    -5.281000000
