201
-1265.57377
C    -0.218000000     2.685000000     4.265000000
H    -1.120000000     2.167000000     4.580000000
C    -0.136000000     3.262000000     2.973000000
C     1.070000000     3.781000000     2.559000000
H     1.071000000     4.191000000     1.552000000
C    -1.382000000     3.246000000     2.046000000
O    -2.671000000     3.008000000     2.675000000
H    -1.245000000     2.463000000     1.285000000
O    -1.476000000     4.343000000     1.190000000
C    -1.675000000     4.050000000    -0.143000000
C    -0.523000000     4.041000000    -0.933000000
H     0.461000000     4.251000000    -0.522000000
C    -0.569000000     3.819000000    -2.270000000
O     0.636000000     3.915000000    -2.888000000
C    -1.825000000     3.478000000    -2.825000000
C    -1.942000000     3.030000000    -4.275000000
H    -3.002000000     3.052000000    -4.539000000
C    -1.432000000     1.628000000    -4.451000000
C    -2.306000000     0.556000000    -4.338000000
H    -3.360000000     0.729000000    -4.133000000
H    -1.513000000     3.769000000    -4.956000000
C    -2.981000000     3.415000000    -1.995000000
H    -3.952000000     3.062000000    -2.332000000
C    -2.878000000     3.704000000    -0.634000000
C    -4.133000000     3.630000000     0.241000000
H    -4.991000000     3.658000000    -0.434000000
H    -4.278000000     4.425000000     0.975000000
C    -4.245000000     2.255000000     0.909000000
C    -4.984000000     1.222000000     0.351000000
H    -5.592000000     1.458000000    -0.518000000
C    -3.503000000     2.026000000     2.113000000
C    -3.639000000     0.821000000     2.782000000
H    -3.242000000     0.766000000     3.793000000
C    -4.336000000    -0.227000000     2.210000000
O    -4.100000000    -1.401000000     2.877000000
C    -3.131000000    -2.173000000     2.193000000
C    -2.275000000    -2.915000000     3.178000000
C    -1.634000000    -4.126000000     2.925000000
H    -1.788000000    -4.605000000     1.961000000
C    -2.039000000    -2.275000000     4.378000000
H    -2.359000000    -1.254000000     4.569000000
O    -3.759000000    -3.083000000     1.246000000
H    -2.449000000    -1.483000000     1.674000000
C    -4.902000000    -0.034000000     0.927000000
C    -5.489000000    -1.155000000     0.077000000
H    -6.096000000    -0.684000000    -0.699000000
H    -6.123000000    -1.847000000     0.637000000
C    -4.361000000    -1.805000000    -0.651000000
C    -4.276000000    -1.572000000    -2.051000000
H    -4.869000000    -0.913000000    -2.680000000
C    -3.613000000    -2.795000000    -0.072000000
C    -2.670000000    -3.495000000    -0.770000000
H    -2.222000000    -4.328000000    -0.234000000
C    -2.462000000    -3.162000000    -2.104000000
O    -1.430000000    -3.723000000    -2.819000000
C    -0.262000000    -2.767000000    -2.788000000
C     0.999000000    -3.405000000    -2.211000000
C     0.952000000    -4.605000000    -1.523000000
H     0.004000000    -5.102000000    -1.328000000
C     2.259000000    -2.800000000    -2.348000000
H     2.345000000    -1.856000000    -2.879000000
O    -0.108000000    -2.279000000    -4.156000000
H    -0.634000000    -2.010000000    -2.081000000
C    -3.223000000    -2.205000000    -2.739000000
C    -2.877000000    -1.853000000    -4.137000000
H    -3.802000000    -1.472000000    -4.575000000
H    -2.632000000    -2.683000000    -4.803000000
C    -1.871000000    -0.777000000    -4.374000000
C    -0.519000000    -1.011000000    -4.409000000
C     0.406000000     0.012000000    -4.611000000
H     1.484000000    -0.121000000    -4.637000000
C    -0.047000000     1.307000000    -4.579000000
O     0.877000000     2.381000000    -4.539000000
C     1.340000000     2.766000000    -3.248000000
H     1.135000000     1.960000000    -2.529000000
C     2.880000000     3.020000000    -3.207000000
C     3.391000000     3.957000000    -2.338000000
H     2.697000000     4.639000000    -1.854000000
C     3.717000000     2.066000000    -3.811000000
H     3.329000000     1.313000000    -4.492000000
C     5.094000000     2.178000000    -3.578000000
O     5.900000000     1.251000000    -4.132000000
C     5.643000000     3.198000000    -2.801000000
H     6.706000000     3.294000000    -2.591000000
C     4.750000000     4.090000000    -2.130000000
O     5.238000000     5.092000000    -1.438000000
C     4.526000000     5.552000000    -0.344000000
C     4.353000000     4.751000000     0.753000000
H     4.832000000     3.778000000     0.819000000
C     4.017000000     6.848000000    -0.345000000
H     4.279000000     7.498000000    -1.176000000
C     3.250000000     7.389000000     0.651000000
H     2.842000000     8.396000000     0.637000000
C     2.972000000     6.496000000     1.767000000
H     2.232000000     6.872000000     2.469000000
C     3.492000000     5.206000000     1.816000000
O     3.300000000     4.368000000     2.937000000
C     2.120000000     3.975000000     3.393000000
C     2.054000000     3.494000000     4.724000000
H     2.939000000     3.396000000     5.349000000
C     0.924000000     2.748000000     5.063000000
O     0.973000000     2.025000000     6.322000000
C    -0.095000000     1.212000000     6.669000000
C     0.028000000    -0.128000000     6.583000000
H     1.004000000    -0.594000000     6.480000000
C    -1.299000000     1.833000000     7.051000000
H    -1.338000000     2.919000000     7.080000000
C    -2.381000000     1.003000000     7.340000000
H    -3.381000000     1.364000000     7.568000000
C    -2.295000000    -0.349000000     7.112000000
H    -3.038000000    -1.077000000     7.425000000
C    -1.077000000    -0.933000000     6.723000000
O    -0.930000000    -2.277000000     6.621000000
C    -1.254000000    -2.897000000     5.405000000
C    -0.630000000    -4.113000000     5.111000000
H    -0.087000000    -4.641000000     5.891000000
C    -0.809000000    -4.724000000     3.882000000
O    -0.233000000    -5.968000000     3.700000000
C    -0.116000000    -6.557000000     2.426000000
C     0.832000000    -6.125000000     1.539000000
H     1.463000000    -5.249000000     1.662000000
C    -0.810000000    -7.806000000     2.223000000
H    -1.522000000    -8.090000000     2.994000000
C    -0.537000000    -8.539000000     1.021000000
H    -1.073000000    -9.463000000     0.820000000
C     0.467000000    -8.071000000     0.149000000
H     0.801000000    -8.654000000    -0.705000000
C     1.128000000    -6.865000000     0.403000000
O     2.152000000    -6.456000000    -0.424000000
C     2.139000000    -5.236000000    -1.042000000
C     3.384000000    -4.745000000    -1.358000000
H     4.340000000    -5.193000000    -1.099000000
C     3.441000000    -3.553000000    -2.074000000
O     4.659000000    -3.056000000    -2.334000000
C     4.865000000    -2.180000000    -3.413000000
C     4.726000000    -2.675000000    -4.707000000
H     4.630000000    -3.751000000    -4.827000000
C     4.911000000    -1.819000000    -5.825000000
H     4.699000000    -2.172000000    -6.831000000
C     5.266000000    -0.513000000    -5.653000000
H     5.446000000     0.149000000    -6.497000000
C     5.430000000     0.001000000    -4.401000000
C     5.254000000    -0.823000000    -3.261000000
H     5.519000000    -0.432000000    -2.282000000
O     6.054000000    -1.863000000     4.022000000
H     6.058000000    -0.929000000     4.229000000
H     5.858000000    -1.900000000     3.086000000
O     9.395000000    -1.677000000    -0.687000000
H     9.716000000    -2.575000000    -0.773000000
H     8.442000000    -1.759000000    -0.715000000
O     5.042000000    -2.564000000     7.467000000
H     5.562000000    -2.989000000     8.150000000
H     5.350000000    -2.959000000     6.652000000
O     4.497000000     2.374000000     7.550000000
H     4.657000000     2.081000000     8.447000000
H     4.171000000     1.596000000     7.098000000
O     8.393000000     3.840000000     2.554000000
H     8.459000000     4.736000000     2.223000000
H     8.973000000     3.823000000     3.316000000
O     5.381000000    -4.175000000     4.992000000
H     5.322000000    -3.364000000     4.487000000
H     6.274000000    -4.487000000     4.840000000
O     7.682000000     2.025000000     0.524000000
H     7.948000000     2.796000000     1.025000000
H     7.159000000     1.509000000     1.138000000
O     6.049000000     2.958000000     5.247000000
H     5.345000000     3.117000000     5.875000000
H     5.625000000     2.501000000     4.521000000
O     4.527000000    -2.770000000     1.458000000
H     4.451000000    -3.680000000     1.745000000
H     3.626000000    -2.445000000     1.455000000
O     9.553000000    -1.614000000     4.180000000
H     9.332000000    -0.756000000     3.818000000
H     9.358000000    -2.230000000     3.473000000
O     8.688000000    -3.530000000     1.948000000
H     9.505000000    -3.477000000     1.453000000
H     8.090000000    -2.940000000     1.489000000
O    10.098000000     2.395000000     5.781000000
H     9.483000000     3.015000000     6.174000000
H     9.549000000     1.665000000     5.493000000
O     7.282000000     0.035000000     6.593000000
H     6.479000000    -0.328000000     6.967000000
H     7.000000000     0.839000000     6.156000000
O     8.071000000     4.084000000     6.740000000
H     7.374000000     3.699000000     6.209000000
H     7.621000000     4.433000000     7.510000000
O     8.889000000     2.663000000    -1.833000000
H     8.720000000     1.932000000    -2.428000000
H     8.227000000     2.572000000    -1.149000000
O     8.575000000     1.062000000     3.568000000
H     7.673000000     1.359000000     3.445000000
H     9.059000000     1.461000000     2.844000000
O     3.798000000     0.040000000     6.253000000
H     4.074000000    -0.845000000     6.490000000
H     4.317000000     0.254000000     5.478000000
O     6.933000000    -1.724000000     0.728000000
H     6.041000000    -2.070000000     0.725000000
H     6.841000000    -0.825000000     1.044000000
O    10.073000000     0.669000000     0.385000000
H     9.217000000     1.092000000     0.315000000
H     9.908000000    -0.245000000     0.156000000
