201
-1230.72156
C     0.291000000     3.404000000     3.950000000
H    -0.733000000     3.258000000     4.285000000
C     0.555000000     3.808000000     2.611000000
C     1.851000000     4.142000000     2.273000000
H     2.156000000     4.242000000     1.235000000
C    -0.640000000     3.866000000     1.638000000
O    -1.973000000     3.968000000     2.154000000
H    -0.559000000     2.947000000     1.038000000
O    -0.350000000     4.937000000     0.716000000
C    -0.598000000     4.652000000    -0.587000000
C     0.535000000     4.396000000    -1.339000000
H     1.511000000     4.533000000    -0.881000000
C     0.442000000     3.825000000    -2.638000000
O     1.573000000     3.329000000    -3.260000000
C    -0.813000000     3.562000000    -3.158000000
C    -0.907000000     2.925000000    -4.489000000
H    -1.812000000     3.207000000    -5.032000000
C    -0.802000000     1.375000000    -4.489000000
C    -1.963000000     0.605000000    -4.472000000
H    -2.931000000     1.100000000    -4.435000000
H    -0.091000000     3.272000000    -5.127000000
C    -1.979000000     3.880000000    -2.454000000
H    -2.942000000     3.810000000    -2.954000000
C    -1.874000000     4.307000000    -1.114000000
C    -3.179000000     4.558000000    -0.318000000
H    -3.996000000     4.867000000    -0.973000000
H    -3.086000000     5.401000000     0.370000000
C    -3.519000000     3.382000000     0.472000000
C    -4.388000000     2.406000000    -0.081000000
H    -4.825000000     2.564000000    -1.064000000
C    -2.992000000     3.165000000     1.738000000
C    -3.307000000     2.007000000     2.451000000
H    -2.821000000     1.831000000     3.407000000
C    -4.107000000     1.057000000     1.914000000
O    -4.228000000    -0.169000000     2.659000000
C    -3.499000000    -1.273000000     2.227000000
C    -2.844000000    -2.117000000     3.395000000
C    -2.758000000    -3.501000000     3.390000000
H    -3.403000000    -4.064000000     2.720000000
C    -2.292000000    -1.465000000     4.450000000
H    -2.424000000    -0.401000000     4.628000000
O    -4.319000000    -2.043000000     1.334000000
H    -2.694000000    -0.827000000     1.625000000
C    -4.649000000     1.260000000     0.640000000
C    -5.497000000     0.263000000    -0.052000000
H    -6.156000000     0.765000000    -0.763000000
H    -6.082000000    -0.228000000     0.729000000
C    -4.553000000    -0.792000000    -0.735000000
C    -4.304000000    -0.679000000    -2.092000000
H    -4.762000000     0.085000000    -2.715000000
C    -4.078000000    -1.911000000    -0.068000000
C    -3.448000000    -2.943000000    -0.726000000
H    -3.130000000    -3.862000000    -0.240000000
C    -3.154000000    -2.731000000    -2.046000000
O    -2.295000000    -3.666000000    -2.650000000
C    -0.913000000    -3.138000000    -2.848000000
C     0.093000000    -4.131000000    -2.179000000
C    -0.298000000    -5.172000000    -1.388000000
H    -1.331000000    -5.397000000    -1.137000000
C     1.425000000    -3.833000000    -2.367000000
H     1.623000000    -2.885000000    -2.861000000
O    -0.547000000    -2.859000000    -4.256000000
H    -0.982000000    -2.218000000    -2.250000000
C    -3.518000000    -1.651000000    -2.790000000
C    -3.223000000    -1.481000000    -4.225000000
H    -4.051000000    -0.979000000    -4.729000000
H    -3.160000000    -2.430000000    -4.761000000
C    -1.894000000    -0.774000000    -4.492000000
C    -0.692000000    -1.479000000    -4.599000000
C     0.451000000    -0.709000000    -4.483000000
H     1.421000000    -1.195000000    -4.416000000
C     0.417000000     0.660000000    -4.492000000
O     1.632000000     1.291000000    -4.417000000
C     2.012000000     2.008000000    -3.203000000
H     1.671000000     1.517000000    -2.279000000
C     3.545000000     1.928000000    -3.062000000
C     4.223000000     2.909000000    -2.414000000
H     3.727000000     3.814000000    -2.074000000
C     4.238000000     0.833000000    -3.638000000
H     3.726000000     0.051000000    -4.192000000
C     5.526000000     0.622000000    -3.424000000
O     6.136000000    -0.548000000    -3.847000000
C     6.293000000     1.614000000    -2.757000000
H     7.350000000     1.467000000    -2.555000000
C     5.629000000     2.771000000    -2.231000000
O     6.365000000     3.550000000    -1.356000000
C     5.697000000     4.296000000    -0.457000000
C     5.453000000     3.895000000     0.824000000
H     5.920000000     2.999000000     1.225000000
C     5.261000000     5.554000000    -0.897000000
H     5.549000000     5.978000000    -1.855000000
C     4.267000000     6.302000000    -0.160000000
H     3.760000000     7.169000000    -0.577000000
C     4.050000000     5.837000000     1.122000000
H     3.454000000     6.552000000     1.684000000
C     4.609000000     4.649000000     1.645000000
O     4.206000000     4.160000000     2.914000000
C     2.888000000     4.068000000     3.290000000
C     2.586000000     3.742000000     4.618000000
H     3.396000000     3.688000000     5.342000000
C     1.278000000     3.388000000     4.904000000
O     0.930000000     3.125000000     6.251000000
C    -0.074000000     2.207000000     6.642000000
C    -0.002000000     0.794000000     6.355000000
H     0.885000000     0.513000000     5.792000000
C    -1.276000000     2.677000000     7.218000000
H    -1.436000000     3.733000000     7.421000000
C    -2.246000000     1.758000000     7.659000000
H    -3.146000000     2.138000000     8.136000000
C    -2.213000000     0.445000000     7.260000000
H    -3.060000000    -0.235000000     7.292000000
C    -0.991000000    -0.086000000     6.747000000
O    -0.899000000    -1.408000000     6.451000000
C    -1.520000000    -2.119000000     5.460000000
C    -1.327000000    -3.485000000     5.319000000
H    -0.655000000    -3.895000000     6.068000000
C    -1.987000000    -4.199000000     4.311000000
O    -1.928000000    -5.568000000     4.227000000
C    -1.792000000    -6.353000000     3.115000000
C    -0.783000000    -6.105000000     2.224000000
H    -0.109000000    -5.275000000     2.415000000
C    -2.671000000    -7.434000000     2.900000000
H    -3.463000000    -7.566000000     3.633000000
C    -2.540000000    -8.207000000     1.690000000
H    -3.284000000    -8.977000000     1.499000000
C    -1.546000000    -7.820000000     0.790000000
H    -1.611000000    -8.349000000    -0.157000000
C    -0.619000000    -6.866000000     1.134000000
O     0.434000000    -6.770000000     0.313000000
C     0.657000000    -5.870000000    -0.702000000
C     2.045000000    -5.684000000    -0.972000000
H     2.821000000    -6.225000000    -0.437000000
C     2.428000000    -4.664000000    -1.792000000
O     3.714000000    -4.253000000    -1.868000000
C     4.301000000    -3.697000000    -3.040000000
C     4.189000000    -4.248000000    -4.322000000
H     3.678000000    -5.202000000    -4.416000000
C     4.510000000    -3.449000000    -5.391000000
H     4.155000000    -3.755000000    -6.372000000
C     5.205000000    -2.259000000    -5.208000000
H     5.544000000    -1.644000000    -6.038000000
C     5.453000000    -1.775000000    -3.921000000
C     4.893000000    -2.474000000    -2.866000000
H     4.903000000    -2.129000000    -1.835000000
O     4.110000000    -6.876000000     6.758000000
H     4.952000000    -6.456000000     6.932000000
H     3.466000000    -6.176000000     6.863000000
O     7.254000000    -2.427000000    -0.344000000
H     7.798000000    -2.701000000    -1.082000000
H     6.793000000    -3.223000000    -0.078000000
O     3.366000000    -0.209000000     4.828000000
H     3.363000000    -1.035000000     4.345000000
H     4.126000000     0.265000000     4.490000000
O     5.402000000    -2.931000000     4.327000000
H     5.374000000    -3.078000000     5.273000000
H     4.503000000    -3.078000000     4.036000000
O     8.566000000    -2.422000000     4.501000000
H     8.980000000    -2.007000000     3.744000000
H     7.633000000    -2.242000000     4.392000000
O     1.982000000    -8.960000000     2.069000000
H     2.469000000    -8.233000000     2.458000000
H     1.108000000    -8.895000000     2.452000000
O     4.635000000    -0.094000000     8.163000000
H     4.923000000     0.636000000     7.614000000
H     4.728000000    -0.866000000     7.605000000
O     6.210000000    -1.350000000     1.950000000
H     6.486000000    -1.566000000     1.059000000
H     5.560000000    -2.018000000     2.168000000
O     4.992000000     0.914000000     2.851000000
H     5.444000000     0.162000000     2.468000000
H     4.252000000     1.072000000     2.266000000
O     2.098000000    -4.850000000     7.200000000
H     2.365000000    -4.895000000     8.118000000
H     1.975000000    -3.915000000     7.032000000
O     1.799000000    -5.177000000     4.261000000
H     2.050000000    -4.334000000     3.883000000
H     1.598000000    -4.979000000     5.175000000
O     5.908000000    -7.200000000     1.314000000
H     5.057000000    -6.973000000     1.688000000
H     6.301000000    -6.359000000     1.083000000
O     7.430000000    -4.731000000     2.639000000
H     6.693000000    -4.393000000     2.129000000
H     7.617000000    -4.040000000     3.275000000
O     6.964000000    -6.952000000     4.488000000
H     6.954000000    -6.383000000     3.719000000
H     7.139000000    -6.362000000     5.221000000
O     4.845000000    -3.171000000     6.971000000
H     5.515000000    -3.729000000     7.368000000
H     4.020000000    -3.492000000     7.335000000
O     3.580000000    -6.465000000     2.582000000
H     3.527000000    -5.757000000     1.940000000
H     3.063000000    -6.154000000     3.325000000
O     2.149000000    -2.225000000     6.603000000
H     1.532000000    -1.953000000     5.923000000
H     3.002000000    -1.929000000     6.285000000
O     3.004000000     1.289000000     1.034000000
H     3.333000000     1.147000000     0.147000000
H     2.317000000     0.631000000     1.143000000
O     5.260000000    -4.467000000     0.277000000
H     4.789000000    -4.330000000    -0.545000000
H     4.726000000    -4.023000000     0.935000000
