201
-1242.82935
C     0.457000000     2.720000000     3.794000000
H    -0.512000000     2.269000000     3.993000000
C     0.666000000     3.458000000     2.578000000
C     1.860000000     4.039000000     2.229000000
H     2.051000000     4.605000000     1.321000000
C    -0.504000000     3.549000000     1.581000000
O    -1.763000000     3.668000000     2.332000000
H    -0.507000000     2.682000000     0.905000000
O    -0.446000000     4.849000000     0.837000000
C    -0.561000000     4.608000000    -0.531000000
C     0.561000000     4.294000000    -1.291000000
H     1.526000000     4.261000000    -0.793000000
C     0.472000000     4.031000000    -2.611000000
O     1.550000000     3.594000000    -3.300000000
C    -0.772000000     3.747000000    -3.094000000
C    -0.994000000     3.106000000    -4.460000000
H    -1.984000000     3.272000000    -4.890000000
C    -0.855000000     1.664000000    -4.406000000
C    -2.039000000     0.892000000    -4.393000000
H    -2.983000000     1.428000000    -4.340000000
H    -0.308000000     3.579000000    -5.166000000
C    -1.954000000     3.867000000    -2.291000000
H    -2.959000000     3.563000000    -2.572000000
C    -1.844000000     4.435000000    -1.021000000
C    -3.108000000     4.547000000    -0.091000000
H    -3.937000000     4.923000000    -0.694000000
H    -2.887000000     5.336000000     0.631000000
C    -3.476000000     3.292000000     0.644000000
C    -4.350000000     2.389000000     0.090000000
H    -4.796000000     2.567000000    -0.886000000
C    -2.836000000     2.915000000     1.867000000
C    -3.308000000     1.846000000     2.599000000
H    -2.798000000     1.617000000     3.530000000
C    -4.193000000     0.927000000     2.033000000
O    -4.339000000    -0.291000000     2.687000000
C    -3.571000000    -1.385000000     2.140000000
C    -2.834000000    -2.258000000     3.179000000
C    -2.745000000    -3.629000000     3.027000000
H    -3.025000000    -4.096000000     2.086000000
C    -2.518000000    -1.698000000     4.414000000
H    -2.641000000    -0.623000000     4.525000000
O    -4.473000000    -2.186000000     1.300000000
H    -2.878000000    -0.900000000     1.437000000
C    -4.696000000     1.188000000     0.794000000
C    -5.651000000     0.185000000     0.098000000
H    -6.302000000     0.705000000    -0.607000000
H    -6.246000000    -0.380000000     0.818000000
C    -4.828000000    -0.824000000    -0.611000000
C    -4.529000000    -0.651000000    -1.943000000
H    -4.875000000     0.229000000    -2.478000000
C    -4.344000000    -2.038000000     0.010000000
C    -3.517000000    -2.929000000    -0.741000000
H    -3.136000000    -3.755000000    -0.147000000
C    -3.175000000    -2.675000000    -2.028000000
O    -2.329000000    -3.565000000    -2.679000000
C    -0.974000000    -3.096000000    -2.774000000
C     0.029000000    -4.087000000    -2.326000000
C    -0.280000000    -5.283000000    -1.691000000
H    -1.321000000    -5.501000000    -1.469000000
C     1.371000000    -3.885000000    -2.682000000
H     1.596000000    -2.996000000    -3.266000000
O    -0.628000000    -2.598000000    -4.156000000
H    -0.988000000    -2.183000000    -2.160000000
C    -3.712000000    -1.590000000    -2.682000000
C    -3.366000000    -1.303000000    -4.105000000
H    -4.183000000    -0.667000000    -4.451000000
H    -3.359000000    -2.194000000    -4.737000000
C    -2.035000000    -0.548000000    -4.276000000
C    -0.786000000    -1.209000000    -4.334000000
C     0.377000000    -0.465000000    -4.531000000
H     1.302000000    -1.035000000    -4.502000000
C     0.382000000     0.887000000    -4.488000000
O     1.578000000     1.514000000    -4.379000000
C     1.960000000     2.270000000    -3.178000000
H     1.606000000     1.771000000    -2.264000000
C     3.398000000     2.173000000    -2.937000000
C     4.003000000     3.286000000    -2.346000000
H     3.484000000     4.230000000    -2.200000000
C     4.077000000     0.974000000    -3.060000000
H     3.556000000     0.111000000    -3.467000000
C     5.377000000     0.900000000    -2.613000000
O     6.077000000    -0.292000000    -2.798000000
C     6.051000000     2.110000000    -2.097000000
H     7.076000000     1.988000000    -1.757000000
C     5.335000000     3.310000000    -2.064000000
O     5.955000000     4.465000000    -1.617000000
C     5.459000000     5.054000000    -0.433000000
C     4.921000000     4.271000000     0.622000000
H     4.770000000     3.197000000     0.551000000
C     5.735000000     6.426000000    -0.250000000
H     6.263000000     7.032000000    -0.982000000
C     5.279000000     7.036000000     0.937000000
H     5.414000000     8.094000000     1.145000000
C     4.650000000     6.272000000     1.901000000
H     4.429000000     6.704000000     2.874000000
C     4.654000000     4.887000000     1.777000000
O     4.251000000     4.166000000     2.902000000
C     2.913000000     3.717000000     3.074000000
C     2.680000000     2.982000000     4.251000000
H     3.627000000     2.894000000     4.777000000
C     1.498000000     2.452000000     4.635000000
O     1.366000000     1.631000000     5.716000000
C     0.188000000     1.184000000     6.159000000
C    -0.013000000    -0.187000000     6.045000000
H     0.650000000    -0.759000000     5.401000000
C    -0.653000000     2.026000000     6.928000000
H    -0.403000000     3.060000000     7.155000000
C    -1.723000000     1.462000000     7.611000000
H    -2.340000000     2.126000000     8.211000000
C    -2.005000000     0.075000000     7.447000000
H    -2.909000000    -0.291000000     7.927000000
C    -1.114000000    -0.725000000     6.705000000
O    -1.391000000    -2.048000000     6.577000000
C    -1.890000000    -2.521000000     5.351000000
C    -1.535000000    -3.847000000     5.103000000
H    -0.959000000    -4.469000000     5.783000000
C    -2.014000000    -4.413000000     3.895000000
O    -1.888000000    -5.771000000     3.743000000
C    -1.885000000    -6.473000000     2.516000000
C    -0.810000000    -6.359000000     1.636000000
H     0.055000000    -5.728000000     1.824000000
C    -2.861000000    -7.415000000     2.352000000
H    -3.519000000    -7.511000000     3.212000000
C    -2.859000000    -8.264000000     1.266000000
H    -3.518000000    -9.113000000     1.102000000
C    -1.784000000    -8.155000000     0.397000000
H    -1.680000000    -8.871000000    -0.415000000
C    -0.773000000    -7.225000000     0.566000000
O     0.282000000    -7.193000000    -0.317000000
C     0.695000000    -6.141000000    -1.197000000
C     2.004000000    -5.914000000    -1.602000000
H     2.732000000    -6.570000000    -1.132000000
C     2.381000000    -4.742000000    -2.315000000
O     3.703000000    -4.391000000    -2.450000000
C     4.188000000    -3.344000000    -3.243000000
C     3.963000000    -3.315000000    -4.653000000
H     3.619000000    -4.231000000    -5.126000000
C     4.562000000    -2.354000000    -5.455000000
H     4.379000000    -2.303000000    -6.526000000
C     5.294000000    -1.388000000    -4.845000000
H     5.699000000    -0.583000000    -5.453000000
C     5.481000000    -1.339000000    -3.440000000
C     4.893000000    -2.356000000    -2.647000000
H     5.113000000    -2.404000000    -1.584000000
O     3.318000000    -4.837000000     3.314000000
H     2.904000000    -3.973000000     3.314000000
H     2.594000000    -5.448000000     3.452000000
O     8.976000000    -1.773000000     4.047000000
H     8.614000000    -2.641000000     3.866000000
H     8.491000000    -1.466000000     4.812000000
O     5.941000000    -5.181000000     6.324000000
H     6.211000000    -5.117000000     7.241000000
H     5.831000000    -4.273000000     6.043000000
O     7.307000000    -3.310000000    -0.933000000
H     7.044000000    -4.201000000    -0.700000000
H     6.973000000    -3.186000000    -1.821000000
O     7.760000000    -1.749000000     6.374000000
H     7.123000000    -1.110000000     6.696000000
H     8.195000000    -2.072000000     7.163000000
O     0.969000000    -3.871000000     8.364000000
H     1.309000000    -3.126000000     8.860000000
H     1.046000000    -3.605000000     7.448000000
O     2.932000000    -1.205000000     7.523000000
H     3.533000000    -1.420000000     8.236000000
H     2.199000000    -0.764000000     7.952000000
O     6.483000000     0.960000000     2.172000000
H     6.388000000     0.081000000     1.803000000
H     6.659000000     0.812000000     3.101000000
O     6.659000000     1.475000000     5.670000000
H     5.960000000     0.874000000     5.411000000
H     6.425000000     1.748000000     6.557000000
O     3.384000000    -6.428000000     6.414000000
H     4.259000000    -6.042000000     6.466000000
H     2.893000000    -5.833000000     5.847000000
O     6.298000000    -1.571000000     1.155000000
H     6.360000000    -1.951000000     0.279000000
H     5.386000000    -1.705000000     1.411000000
O     4.468000000    -0.023000000     5.316000000
H     3.955000000    -0.094000000     4.510000000
H     3.853000000    -0.255000000     6.012000000
O     1.052000000    -6.297000000     4.503000000
H     0.504000000    -7.063000000     4.671000000
H     0.590000000    -5.574000000     4.929000000
O     4.192000000    -4.587000000     0.735000000
H     4.156000000    -3.642000000     0.882000000
H     3.718000000    -4.963000000     1.477000000
O     9.165000000    -1.552000000     0.991000000
H     9.031000000    -1.522000000     1.938000000
H     8.513000000    -2.179000000     0.677000000
O     6.718000000    -4.591000000     3.166000000
H     6.260000000    -4.086000000     2.494000000
H     6.185000000    -4.479000000     3.954000000
O     4.992000000    -2.986000000     5.263000000
H     4.381000000    -3.258000000     4.579000000
H     4.743000000    -2.083000000     5.462000000
O     2.131000000    -3.780000000     6.002000000
H     2.079000000    -3.208000000     5.237000000
H     2.812000000    -3.388000000     6.548000000
O     6.257000000    -5.701000000    -0.463000000
H     6.779000000    -6.088000000     0.240000000
H     5.410000000    -5.514000000    -0.058000000
