201
-1237.85744
C    -2.301000000    -2.073000000    -4.232000000
H    -2.373000000    -1.081000000    -4.670000000
C    -2.857000000    -2.346000000    -2.941000000
C    -2.709000000    -3.618000000    -2.428000000
H    -2.979000000    -3.787000000    -1.388000000
C    -3.429000000    -1.257000000    -2.075000000
O    -3.968000000    -0.196000000    -2.899000000
H    -2.651000000    -0.870000000    -1.401000000
O    -4.518000000    -1.780000000    -1.301000000
C    -4.536000000    -1.441000000     0.047000000
C    -3.968000000    -2.263000000     0.948000000
H    -3.449000000    -3.188000000     0.709000000
C    -3.570000000    -1.784000000     2.166000000
O    -2.823000000    -2.562000000     3.040000000
C    -4.030000000    -0.598000000     2.581000000
C    -3.709000000    -0.101000000     3.931000000
H    -4.471000000     0.629000000     4.212000000
C    -2.343000000     0.630000000     4.046000000
C    -2.262000000     2.000000000     3.909000000
H    -3.158000000     2.521000000     3.582000000
H    -3.686000000    -0.952000000     4.615000000
C    -4.723000000     0.329000000     1.712000000
H    -4.800000000     1.375000000     1.995000000
C    -4.864000000    -0.082000000     0.380000000
C    -5.423000000     0.895000000    -0.628000000
H    -5.956000000     1.660000000    -0.060000000
H    -6.111000000     0.539000000    -1.398000000
C    -4.360000000     1.667000000    -1.425000000
C    -3.951000000     2.936000000    -1.022000000
H    -4.358000000     3.327000000    -0.093000000
C    -3.736000000     1.056000000    -2.489000000
C    -2.646000000     1.636000000    -3.181000000
H    -2.060000000     1.076000000    -3.905000000
C    -2.143000000     2.823000000    -2.717000000
O    -1.016000000     3.267000000    -3.327000000
C     0.180000000     3.213000000    -2.504000000
C     1.331000000     2.809000000    -3.300000000
C     2.676000000     3.095000000    -2.916000000
H     2.926000000     3.633000000    -2.005000000
C     1.133000000     1.816000000    -4.298000000
H     0.112000000     1.542000000    -4.554000000
O     0.442000000     4.522000000    -1.850000000
H     0.065000000     2.477000000    -1.694000000
C    -2.819000000     3.455000000    -1.651000000
C    -2.360000000     4.848000000    -1.149000000
H    -3.308000000     5.240000000    -0.775000000
H    -2.093000000     5.614000000    -1.880000000
C    -1.268000000     4.611000000    -0.107000000
C    -1.580000000     4.395000000     1.207000000
H    -2.628000000     4.566000000     1.439000000
C     0.055000000     4.594000000    -0.542000000
C     1.057000000     4.381000000     0.400000000
H     2.086000000     4.296000000     0.060000000
C     0.759000000     4.302000000     1.777000000
O     1.722000000     4.007000000     2.621000000
C     1.891000000     2.633000000     3.087000000
C     3.332000000     2.282000000     2.963000000
C     4.209000000     2.926000000     2.092000000
H     3.916000000     3.798000000     1.513000000
C     3.794000000     1.087000000     3.566000000
H     3.066000000     0.393000000     3.980000000
O     1.366000000     2.416000000     4.427000000
H     1.358000000     1.954000000     2.406000000
C    -0.564000000     4.251000000     2.182000000
C    -0.945000000     4.089000000     3.634000000
H    -1.934000000     4.487000000     3.872000000
H    -0.226000000     4.700000000     4.183000000
C    -1.024000000     2.614000000     4.024000000
C     0.109000000     1.913000000     4.445000000
C    -0.006000000     0.524000000     4.588000000
H     0.913000000    -0.047000000     4.687000000
C    -1.208000000    -0.145000000     4.370000000
O    -1.254000000    -1.560000000     4.480000000
C    -1.470000000    -2.212000000     3.228000000
H    -1.124000000    -1.580000000     2.396000000
C    -0.631000000    -3.447000000     3.001000000
C    -1.161000000    -4.656000000     2.488000000
H    -2.192000000    -4.695000000     2.146000000
C     0.737000000    -3.373000000     3.295000000
H     1.143000000    -2.388000000     3.512000000
C     1.539000000    -4.467000000     3.188000000
O     2.938000000    -4.302000000     3.227000000
C     1.047000000    -5.638000000     2.587000000
H     1.733000000    -6.386000000     2.196000000
C    -0.284000000    -5.777000000     2.212000000
O    -0.674000000    -6.892000000     1.601000000
C    -1.764000000    -6.921000000     0.737000000
C    -1.604000000    -6.193000000    -0.496000000
H    -0.782000000    -5.511000000    -0.695000000
C    -2.808000000    -7.825000000     0.953000000
H    -2.926000000    -8.407000000     1.863000000
C    -3.689000000    -8.061000000    -0.164000000
H    -4.590000000    -8.665000000    -0.092000000
C    -3.557000000    -7.302000000    -1.339000000
H    -4.285000000    -7.488000000    -2.125000000
C    -2.493000000    -6.486000000    -1.572000000
O    -2.231000000    -6.004000000    -2.857000000
C    -2.270000000    -4.673000000    -3.274000000
C    -1.812000000    -4.382000000    -4.541000000
H    -1.374000000    -5.239000000    -5.045000000
C    -1.798000000    -3.072000000    -5.032000000
O    -1.252000000    -2.796000000    -6.325000000
C    -0.783000000    -1.569000000    -6.697000000
C     0.532000000    -1.187000000    -6.392000000
H     1.103000000    -1.789000000    -5.689000000
C    -1.681000000    -0.643000000    -7.239000000
H    -2.722000000    -0.925000000    -7.373000000
C    -1.275000000     0.651000000    -7.580000000
H    -2.020000000     1.387000000    -7.870000000
C     0.017000000     1.066000000    -7.275000000
H     0.424000000     2.057000000    -7.460000000
C     0.888000000     0.139000000    -6.613000000
O     2.070000000     0.686000000    -6.182000000
C     2.210000000     1.470000000    -5.080000000
C     3.470000000     1.857000000    -4.737000000
H     4.292000000     1.556000000    -5.381000000
C     3.701000000     2.604000000    -3.619000000
O     5.029000000     2.765000000    -3.281000000
C     5.529000000     3.562000000    -2.267000000
C     5.841000000     2.966000000    -1.071000000
H     5.694000000     1.893000000    -0.975000000
C     5.650000000     4.951000000    -2.437000000
H     5.452000000     5.306000000    -3.445000000
C     6.076000000     5.805000000    -1.359000000
H     6.006000000     6.887000000    -1.435000000
C     6.306000000     5.148000000    -0.120000000
H     6.587000000     5.776000000     0.722000000
C     6.212000000     3.792000000     0.038000000
O     6.478000000     3.241000000     1.285000000
C     5.561000000     2.594000000     2.085000000
C     6.071000000     1.537000000     2.849000000
H     7.085000000     1.155000000     2.763000000
C     5.166000000     0.738000000     3.571000000
O     5.563000000    -0.475000000     4.143000000
C     4.620000000    -1.373000000     4.536000000
C     4.333000000    -1.509000000     5.889000000
H     4.706000000    -0.733000000     6.552000000
C     3.536000000    -2.497000000     6.310000000
H     3.267000000    -2.524000000     7.362000000
C     3.038000000    -3.479000000     5.402000000
H     2.519000000    -4.368000000     5.751000000
C     3.425000000    -3.391000000     4.106000000
C     4.109000000    -2.305000000     3.601000000
H     4.200000000    -2.129000000     2.532000000
O     6.902000000    -1.356000000    -3.532000000
H     6.396000000    -1.184000000    -4.326000000
H     6.373000000    -0.986000000    -2.825000000
O     5.436000000    -2.828000000    -0.552000000
H     5.039000000    -1.957000000    -0.542000000
H     4.747000000    -3.402000000    -0.888000000
O     6.263000000    -5.606000000    -1.571000000
H     5.631000000    -5.729000000    -0.862000000
H     7.095000000    -5.450000000    -1.125000000
O     5.284000000    -5.891000000     2.339000000
H     4.957000000    -6.217000000     1.500000000
H     4.527000000    -5.470000000     2.745000000
O     4.400000000    -0.305000000    -1.124000000
H     4.275000000    -0.168000000    -2.064000000
H     3.522000000    -0.494000000    -0.791000000
O     3.656000000    -1.131000000    -3.562000000
H     4.002000000    -1.099000000    -4.453000000
H     3.002000000    -1.830000000    -3.584000000
O     7.179000000    -0.011000000    -0.028000000
H     7.582000000     0.516000000    -0.718000000
H     6.257000000    -0.070000000    -0.280000000
O     0.872000000    -6.977000000    -3.494000000
H     0.437000000    -6.126000000    -3.444000000
H     1.805000000    -6.773000000    -3.442000000
O     4.055000000    -6.576000000    -0.248000000
H     3.627000000    -5.945000000    -0.826000000
H     3.434000000    -7.300000000    -0.181000000
O     0.217000000    -9.232000000    -1.871000000
H     0.114000000    -8.359000000    -2.251000000
H    -0.057000000    -9.830000000    -2.566000000
O     7.567000000    -4.226000000     0.888000000
H     6.893000000    -3.854000000     0.320000000
H     8.262000000    -3.568000000     0.899000000
O     5.620000000    -9.129000000    -1.121000000
H     4.847000000    -9.668000000    -0.952000000
H     5.287000000    -8.232000000    -1.138000000
O     0.057000000    -5.342000000    -7.355000000
H     0.167000000    -4.773000000    -6.594000000
H    -0.386000000    -6.118000000    -7.012000000
O     2.487000000    -8.681000000    -0.350000000
H     2.583000000    -9.446000000     0.216000000
H     1.738000000    -8.889000000    -0.910000000
O     4.858000000    -8.426000000    -4.618000000
H     4.486000000    -7.695000000    -4.126000000
H     4.538000000    -9.207000000    -4.165000000
O     3.551000000    -6.327000000    -3.232000000
H     4.470000000    -6.106000000    -3.079000000
H     3.072000000    -5.530000000    -3.003000000
O     7.597000000    -4.113000000    -3.746000000
H     7.145000000    -3.272000000    -3.816000000
H     7.194000000    -4.540000000    -2.990000000
O     4.592000000    -3.141000000    -7.155000000
H     4.041000000    -3.795000000    -6.724000000
H     5.486000000    -3.453000000    -7.016000000
O     2.478000000    -4.519000000    -5.459000000
H     2.292000000    -4.492000000    -4.521000000
H     3.123000000    -5.220000000    -5.555000000
