201
-1253.43823
C    -0.659000000     3.142000000     4.241000000
H    -1.732000000     3.316000000     4.251000000
C     0.103000000     3.196000000     3.104000000
C     1.408000000     2.698000000     3.168000000
H     2.089000000     2.829000000     2.331000000
C    -0.523000000     3.573000000     1.800000000
O    -1.753000000     4.267000000     1.953000000
H    -0.656000000     2.632000000     1.245000000
O     0.383000000     4.524000000     1.121000000
C     0.556000000     4.320000000    -0.240000000
C     1.825000000     3.919000000    -0.679000000
H     2.712000000     3.864000000    -0.053000000
C     1.941000000     3.582000000    -2.036000000
O     3.202000000     2.988000000    -2.417000000
C     0.896000000     3.727000000    -2.920000000
C     1.076000000     3.328000000    -4.328000000
H     0.380000000     3.946000000    -4.899000000
C     0.836000000     1.847000000    -4.558000000
C    -0.458000000     1.360000000    -4.782000000
H    -1.244000000     2.097000000    -4.924000000
H     2.075000000     3.625000000    -4.652000000
C    -0.350000000     4.224000000    -2.441000000
H    -1.086000000     4.536000000    -3.178000000
C    -0.525000000     4.564000000    -1.139000000
C    -1.852000000     5.219000000    -0.665000000
H    -2.213000000     5.682000000    -1.586000000
H    -1.713000000     5.988000000     0.098000000
C    -2.783000000     4.098000000    -0.110000000
C    -3.628000000     3.365000000    -1.010000000
H    -3.613000000     3.639000000    -2.062000000
C    -2.823000000     3.784000000     1.284000000
C    -3.533000000     2.666000000     1.744000000
H    -3.565000000     2.384000000     2.793000000
C    -4.234000000     1.941000000     0.818000000
O    -4.784000000     0.774000000     1.253000000
C    -4.051000000    -0.475000000     0.940000000
C    -3.981000000    -1.333000000     2.185000000
C    -3.428000000    -2.592000000     2.130000000
H    -3.101000000    -3.049000000     1.200000000
C    -4.330000000    -0.806000000     3.443000000
H    -4.880000000     0.127000000     3.533000000
O    -4.739000000    -1.245000000    -0.103000000
H    -3.108000000    -0.160000000     0.468000000
C    -4.285000000     2.196000000    -0.529000000
C    -5.151000000     1.334000000    -1.466000000
H    -5.596000000     1.916000000    -2.275000000
H    -5.969000000     0.817000000    -0.961000000
C    -4.332000000     0.146000000    -2.002000000
C    -3.705000000     0.323000000    -3.242000000
H    -3.781000000     1.292000000    -3.728000000
C    -4.310000000    -1.054000000    -1.426000000
C    -3.601000000    -2.170000000    -1.962000000
H    -3.536000000    -3.034000000    -1.305000000
C    -2.796000000    -1.973000000    -3.081000000
O    -1.971000000    -2.976000000    -3.448000000
C    -0.537000000    -2.739000000    -3.266000000
C     0.179000000    -3.955000000    -2.685000000
C    -0.469000000    -4.878000000    -1.881000000
H    -1.546000000    -4.871000000    -1.738000000
C     1.544000000    -3.998000000    -2.784000000
H     2.092000000    -3.205000000    -3.286000000
O     0.055000000    -2.353000000    -4.519000000
H    -0.319000000    -1.912000000    -2.574000000
C    -2.942000000    -0.747000000    -3.770000000
C    -2.160000000    -0.483000000    -5.061000000
H    -2.733000000     0.288000000    -5.580000000
H    -2.168000000    -1.318000000    -5.764000000
C    -0.768000000    -0.003000000    -4.817000000
C     0.217000000    -0.939000000    -4.588000000
C     1.498000000    -0.438000000    -4.375000000
H     2.260000000    -1.198000000    -4.223000000
C     1.822000000     0.906000000    -4.358000000
O     3.085000000     1.178000000    -3.896000000
C     3.181000000     1.560000000    -2.527000000
H     2.330000000     1.192000000    -1.936000000
C     4.465000000     1.014000000    -2.024000000
C     4.929000000     1.552000000    -0.785000000
H     4.335000000     2.231000000    -0.179000000
C     5.166000000     0.005000000    -2.658000000
H     4.719000000    -0.437000000    -3.545000000
C     6.391000000    -0.443000000    -2.089000000
O     7.022000000    -1.500000000    -2.668000000
C     6.973000000     0.109000000    -0.967000000
H     7.931000000    -0.265000000    -0.612000000
C     6.184000000     1.088000000    -0.292000000
O     6.540000000     1.441000000     0.971000000
C     5.793000000     2.210000000     1.798000000
C     4.837000000     1.693000000     2.623000000
H     4.629000000     0.637000000     2.470000000
C     6.153000000     3.524000000     1.894000000
H     7.028000000     3.946000000     1.405000000
C     5.593000000     4.300000000     2.858000000
H     5.995000000     5.298000000     3.010000000
C     4.597000000     3.767000000     3.674000000
H     4.062000000     4.288000000     4.464000000
C     4.247000000     2.449000000     3.608000000
O     3.312000000     1.891000000     4.403000000
C     1.970000000     2.317000000     4.373000000
C     1.211000000     2.188000000     5.444000000
H     1.555000000     1.634000000     6.314000000
C    -0.107000000     2.589000000     5.416000000
O    -0.842000000     2.439000000     6.583000000
C    -2.140000000     1.998000000     6.616000000
C    -2.572000000     0.836000000     6.019000000
H    -1.893000000     0.156000000     5.510000000
C    -3.113000000     2.884000000     7.135000000
H    -2.845000000     3.845000000     7.567000000
C    -4.468000000     2.519000000     7.121000000
H    -5.263000000     3.181000000     7.455000000
C    -4.821000000     1.232000000     6.773000000
H    -5.828000000     0.847000000     6.913000000
C    -3.871000000     0.432000000     6.153000000
O    -4.212000000    -0.876000000     5.867000000
C    -4.093000000    -1.487000000     4.617000000
C    -3.484000000    -2.755000000     4.553000000
H    -3.204000000    -3.307000000     5.447000000
C    -3.130000000    -3.299000000     3.321000000
O    -2.666000000    -4.591000000     3.221000000
C    -2.701000000    -5.298000000     2.058000000
C    -1.515000000    -5.809000000     1.556000000
H    -0.624000000    -5.515000000     2.105000000
C    -3.937000000    -5.724000000     1.536000000
H    -4.846000000    -5.473000000     2.078000000
C    -3.927000000    -6.370000000     0.332000000
H    -4.907000000    -6.587000000    -0.086000000
C    -2.800000000    -6.853000000    -0.288000000
H    -2.948000000    -7.309000000    -1.263000000
C    -1.565000000    -6.580000000     0.336000000
O    -0.390000000    -6.784000000    -0.355000000
C     0.242000000    -5.840000000    -1.173000000
C     1.650000000    -5.818000000    -1.127000000
H     2.236000000    -6.420000000    -0.438000000
C     2.264000000    -4.943000000    -2.043000000
O     3.599000000    -4.829000000    -1.941000000
C     4.428000000    -4.140000000    -2.751000000
C     4.474000000    -4.543000000    -4.067000000
H     3.920000000    -5.416000000    -4.403000000
C     5.318000000    -3.877000000    -4.915000000
H     5.331000000    -4.290000000    -5.921000000
C     6.250000000    -2.929000000    -4.466000000
H     6.831000000    -2.413000000    -5.226000000
C     6.271000000    -2.601000000    -3.141000000
C     5.338000000    -3.215000000    -2.220000000
H     5.264000000    -2.949000000    -1.169000000
O     6.963000000    -1.873000000     2.605000000
H     6.067000000    -1.742000000     2.294000000
H     6.882000000    -1.911000000     3.558000000
O     4.446000000    -2.092000000     1.848000000
H     4.049000000    -2.946000000     1.675000000
H     3.717000000    -1.474000000     1.802000000
O    -2.159000000    -8.766000000     3.663000000
H    -1.399000000    -8.780000000     3.081000000
H    -2.157000000    -7.886000000     4.039000000
O     0.073000000    -3.111000000     6.173000000
H     0.890000000    -3.366000000     6.602000000
H     0.158000000    -3.443000000     5.279000000
O    -2.132000000    -6.308000000     5.294000000
H    -2.313000000    -5.645000000     4.627000000
H    -1.261000000    -6.086000000     5.622000000
O     3.221000000    -6.873000000     7.163000000
H     3.708000000    -6.958000000     7.983000000
H     3.613000000    -7.526000000     6.583000000
O     0.716000000    -0.705000000     7.059000000
H     1.619000000    -0.701000000     6.739000000
H     0.373000000    -1.559000000     6.798000000
O     0.571000000    -9.105000000     3.127000000
H     1.245000000    -9.760000000     2.948000000
H     0.343000000    -9.241000000     4.047000000
O     4.463000000    -7.529000000     4.519000000
H     3.943000000    -6.823000000     4.135000000
H     5.302000000    -7.486000000     4.060000000
O     1.453000000    -8.805000000    -0.279000000
H     0.989000000    -8.137000000     0.225000000
H     1.167000000    -8.665000000    -1.182000000
O     4.326000000    -4.610000000     3.584000000
H     3.640000000    -4.477000000     2.931000000
H     3.913000000    -4.376000000     4.416000000
O     6.204000000    -3.187000000     4.920000000
H     6.183000000    -3.903000000     5.556000000
H     5.549000000    -3.429000000     4.266000000
O     6.461000000    -5.938000000     2.264000000
H     5.635000000    -5.589000000     2.597000000
H     6.207000000    -6.697000000     1.739000000
O     0.803000000    -5.706000000     7.809000000
H     1.659000000    -6.134000000     7.821000000
H     0.487000000    -5.828000000     6.913000000
O    -2.474000000    -3.236000000     7.812000000
H    -1.607000000    -3.103000000     7.429000000
H    -2.593000000    -2.491000000     8.401000000
O     3.294000000    -0.632000000     5.764000000
H     4.207000000    -0.367000000     5.650000000
H     2.807000000    -0.080000000     5.153000000
O     0.758000000    -5.904000000     5.041000000
H     1.649000000    -6.224000000     4.897000000
H     0.652000000    -5.196000000     4.405000000
O     2.960000000    -3.444000000     5.463000000
H     2.293000000    -3.376000000     4.780000000
H     3.194000000    -2.537000000     5.661000000
O     2.536000000    -6.839000000     2.207000000
H     2.290000000    -5.915000000     2.165000000
H     1.735000000    -7.287000000     2.479000000
