201
-1232.42723
C    -0.848000000     2.519000000     4.277000000
H    -1.874000000     2.169000000     4.197000000
C    -0.259000000     3.327000000     3.288000000
C     1.068000000     3.655000000     3.464000000
H     1.621000000     4.290000000     2.777000000
C    -1.004000000     3.687000000     2.001000000
O    -2.391000000     3.854000000     2.233000000
H    -0.851000000     2.807000000     1.358000000
O    -0.369000000     4.754000000     1.280000000
C    -0.160000000     4.705000000    -0.060000000
C     1.173000000     4.459000000    -0.434000000
H     1.941000000     4.413000000     0.334000000
C     1.430000000     4.142000000    -1.787000000
O     2.702000000     3.749000000    -2.108000000
C     0.309000000     4.031000000    -2.679000000
C     0.583000000     3.702000000    -4.123000000
H    -0.191000000     4.079000000    -4.795000000
C     0.622000000     2.196000000    -4.390000000
C    -0.552000000     1.575000000    -4.756000000
H    -1.434000000     2.148000000    -5.032000000
H     1.508000000     4.189000000    -4.440000000
C    -1.007000000     4.354000000    -2.286000000
H    -1.794000000     4.256000000    -3.030000000
C    -1.230000000     4.633000000    -0.956000000
C    -2.672000000     4.865000000    -0.441000000
H    -3.321000000     5.345000000    -1.177000000
H    -2.608000000     5.665000000     0.299000000
C    -3.398000000     3.633000000    -0.021000000
C    -4.201000000     2.893000000    -0.926000000
H    -4.426000000     3.312000000    -1.904000000
C    -3.251000000     3.212000000     1.304000000
C    -3.732000000     1.929000000     1.774000000
H    -3.609000000     1.499000000     2.765000000
C    -4.479000000     1.223000000     0.885000000
O    -4.867000000    -0.035000000     1.362000000
C    -4.108000000    -1.215000000     0.970000000
C    -3.871000000    -2.199000000     2.048000000
C    -3.606000000    -3.528000000     1.824000000
H    -3.611000000    -3.891000000     0.800000000
C    -3.946000000    -1.757000000     3.362000000
H    -4.081000000    -0.703000000     3.589000000
O    -4.797000000    -1.750000000    -0.159000000
H    -3.078000000    -0.887000000     0.765000000
C    -4.724000000     1.688000000    -0.417000000
C    -5.485000000     0.779000000    -1.423000000
H    -5.832000000     1.398000000    -2.253000000
H    -6.356000000     0.265000000    -1.010000000
C    -4.460000000    -0.185000000    -1.992000000
C    -3.692000000     0.128000000    -3.119000000
H    -3.745000000     1.129000000    -3.540000000
C    -4.274000000    -1.438000000    -1.394000000
C    -3.309000000    -2.358000000    -1.928000000
H    -3.034000000    -3.304000000    -1.469000000
C    -2.491000000    -1.989000000    -2.994000000
O    -1.459000000    -2.852000000    -3.325000000
C    -0.081000000    -2.468000000    -3.136000000
C     0.763000000    -3.585000000    -2.622000000
C     0.295000000    -4.334000000    -1.534000000
H    -0.706000000    -4.237000000    -1.121000000
C     2.054000000    -3.762000000    -3.093000000
H     2.452000000    -3.117000000    -3.872000000
O     0.387000000    -1.949000000    -4.439000000
H    -0.055000000    -1.668000000    -2.381000000
C    -2.695000000    -0.722000000    -3.606000000
C    -1.963000000    -0.439000000    -4.937000000
H    -2.552000000     0.146000000    -5.647000000
H    -1.845000000    -1.389000000    -5.462000000
C    -0.636000000     0.184000000    -4.718000000
C     0.512000000    -0.561000000    -4.582000000
C     1.656000000     0.033000000    -4.244000000
H     2.516000000    -0.608000000    -4.071000000
C     1.728000000     1.426000000    -4.031000000
O     2.931000000     1.918000000    -3.651000000
C     2.991000000     2.352000000    -2.326000000
H     2.263000000     1.724000000    -1.791000000
C     4.222000000     1.801000000    -1.661000000
C     4.669000000     2.347000000    -0.488000000
H     4.117000000     3.205000000    -0.115000000
C     4.897000000     0.675000000    -2.252000000
H     4.496000000     0.270000000    -3.177000000
C     6.006000000     0.172000000    -1.519000000
O     6.687000000    -1.032000000    -1.850000000
C     6.574000000     0.837000000    -0.463000000
H     7.466000000     0.453000000     0.024000000
C     5.856000000     1.935000000     0.027000000
O     6.228000000     2.345000000     1.342000000
C     5.575000000     3.324000000     2.016000000
C     4.656000000     2.948000000     2.909000000
H     4.447000000     1.884000000     2.992000000
C     5.881000000     4.638000000     1.905000000
H     6.692000000     4.888000000     1.226000000
C     5.175000000     5.603000000     2.601000000
H     5.384000000     6.666000000     2.511000000
C     4.209000000     5.175000000     3.555000000
H     3.610000000     5.810000000     4.203000000
C     3.987000000     3.812000000     3.740000000
O     3.084000000     3.323000000     4.685000000
C     1.803000000     3.140000000     4.517000000
C     1.144000000     2.418000000     5.546000000
H     1.639000000     1.969000000     6.404000000
C    -0.216000000     2.092000000     5.368000000
O    -0.824000000     1.367000000     6.386000000
C    -2.163000000     0.957000000     6.377000000
C    -2.367000000    -0.337000000     5.931000000
H    -1.573000000    -0.983000000     5.567000000
C    -3.270000000     1.796000000     6.726000000
H    -3.147000000     2.821000000     7.065000000
C    -4.499000000     1.211000000     6.831000000
H    -5.365000000     1.741000000     7.222000000
C    -4.678000000    -0.118000000     6.556000000
H    -5.664000000    -0.564000000     6.657000000
C    -3.631000000    -0.905000000     6.022000000
O    -3.865000000    -2.162000000     5.698000000
C    -3.712000000    -2.631000000     4.414000000
C    -3.529000000    -3.971000000     4.159000000
H    -3.386000000    -4.619000000     5.020000000
C    -3.332000000    -4.411000000     2.873000000
O    -3.175000000    -5.762000000     2.629000000
C    -2.610000000    -6.285000000     1.527000000
C    -1.253000000    -6.030000000     1.303000000
H    -0.674000000    -5.346000000     1.918000000
C    -3.342000000    -7.124000000     0.693000000
H    -4.410000000    -7.244000000     0.855000000
C    -2.788000000    -7.764000000    -0.443000000
H    -3.314000000    -8.377000000    -1.171000000
C    -1.399000000    -7.504000000    -0.741000000
H    -0.884000000    -7.998000000    -1.561000000
C    -0.741000000    -6.651000000     0.120000000
O     0.559000000    -6.302000000    -0.176000000
C     1.097000000    -5.351000000    -1.000000000
C     2.392000000    -5.465000000    -1.461000000
H     2.855000000    -6.335000000    -1.002000000
C     2.888000000    -4.627000000    -2.417000000
O     4.143000000    -4.874000000    -2.809000000
C     4.956000000    -3.851000000    -3.255000000
C     5.334000000    -3.782000000    -4.581000000
H     5.017000000    -4.519000000    -5.314000000
C     6.224000000    -2.796000000    -4.993000000
H     6.590000000    -2.792000000    -6.017000000
C     6.671000000    -1.779000000    -4.113000000
H     7.360000000    -0.992000000    -4.408000000
C     6.179000000    -1.838000000    -2.818000000
C     5.348000000    -2.870000000    -2.375000000
H     5.158000000    -3.078000000    -1.325000000
O     7.433000000    -2.333000000     1.633000000
H     6.972000000    -2.491000000     2.457000000
H     6.871000000    -2.729000000     0.966000000
O     3.874000000    -4.877000000     4.980000000
H     4.120000000    -5.795000000     5.092000000
H     3.278000000    -4.878000000     4.231000000
O     2.334000000    -9.701000000    -0.520000000
H     1.437000000    -9.995000000    -0.360000000
H     2.513000000    -9.082000000     0.188000000
O     6.161000000    -2.947000000     6.517000000
H     7.017000000    -3.172000000     6.879000000
H     5.920000000    -3.704000000     5.982000000
O     4.944000000    -0.437000000     4.154000000
H     4.007000000    -0.344000000     3.980000000
H     5.147000000    -1.337000000     3.899000000
O    -0.957000000    -4.995000000     6.717000000
H    -0.314000000    -5.032000000     7.425000000
H    -0.543000000    -4.452000000     6.047000000
O     5.688000000    -3.254000000     3.636000000
H     5.128000000    -3.190000000     2.862000000
H     5.220000000    -3.848000000     4.222000000
O     6.554000000    -7.333000000     1.307000000
H     6.393000000    -7.575000000     0.395000000
H     7.369000000    -7.780000000     1.533000000
O     3.005000000    -2.835000000     6.950000000
H     3.450000000    -3.222000000     6.196000000
H     3.167000000    -3.449000000     7.666000000
O     6.013000000    -4.600000000     0.458000000
H     5.113000000    -4.369000000     0.691000000
H     6.320000000    -5.135000000     1.190000000
O     0.517000000    -7.032000000     3.768000000
H    -0.265000000    -6.605000000     3.420000000
H     1.245000000    -6.503000000     3.443000000
O     8.389000000    -4.341000000    -1.288000000
H     8.028000000    -4.762000000    -2.068000000
H     7.764000000    -4.546000000    -0.593000000
O     2.369000000    -0.542000000     3.993000000
H     1.669000000    -0.649000000     4.637000000
H     1.970000000    -0.799000000     3.162000000
O     7.309000000    -7.042000000     5.141000000
H     6.577000000    -7.244000000     4.558000000
H     6.896000000    -6.812000000     5.973000000
O     1.804000000    -7.153000000     7.571000000
H     1.318000000    -6.645000000     8.221000000
H     2.298000000    -6.499000000     7.076000000
O     0.493000000    -3.318000000     4.960000000
H     1.109000000    -3.263000000     4.229000000
H     0.753000000    -2.608000000     5.547000000
O     4.160000000    -7.609000000     4.600000000
H     4.123000000    -7.495000000     3.651000000
H     3.746000000    -8.458000000     4.756000000
O     1.114000000    -1.122000000     6.795000000
H     1.819000000    -1.761000000     6.901000000
H     1.418000000    -0.349000000     7.272000000
O     3.737000000    -6.613000000     1.687000000
H     4.680000000    -6.753000000     1.602000000
H     3.637000000    -5.661000000     1.703000000
