201
-1241.79486
C    -1.514000000     2.472000000     4.626000000
H    -2.549000000     2.162000000     4.744000000
C    -1.033000000     3.119000000     3.527000000
C     0.332000000     3.614000000     3.497000000
H     0.810000000     3.784000000     2.535000000
C    -1.787000000     3.155000000     2.210000000
O    -3.106000000     2.918000000     2.441000000
H    -1.546000000     2.295000000     1.567000000
O    -1.643000000     4.435000000     1.593000000
C    -1.524000000     4.432000000     0.220000000
C    -0.189000000     4.402000000    -0.283000000
H     0.668000000     4.357000000     0.384000000
C     0.058000000     4.195000000    -1.624000000
O     1.356000000     4.107000000    -1.980000000
C    -0.989000000     3.968000000    -2.533000000
C    -0.640000000     3.765000000    -3.998000000
H    -1.547000000     4.098000000    -4.507000000
C    -0.302000000     2.300000000    -4.313000000
C    -1.320000000     1.439000000    -4.699000000
H    -2.334000000     1.829000000    -4.687000000
H     0.148000000     4.443000000    -4.332000000
C    -2.305000000     4.024000000    -2.098000000
H    -3.107000000     3.764000000    -2.784000000
C    -2.583000000     4.182000000    -0.704000000
C    -4.016000000     3.941000000    -0.112000000
H    -4.742000000     4.198000000    -0.887000000
H    -4.142000000     4.566000000     0.774000000
C    -4.279000000     2.524000000     0.357000000
C    -4.916000000     1.625000000    -0.494000000
H    -5.197000000     2.006000000    -1.472000000
C    -3.841000000     2.083000000     1.613000000
C    -4.086000000     0.783000000     2.024000000
H    -3.845000000     0.468000000     3.036000000
C    -4.594000000    -0.136000000     1.174000000
O    -4.558000000    -1.435000000     1.656000000
C    -3.498000000    -2.219000000     1.232000000
C    -2.944000000    -3.177000000     2.334000000
C    -2.470000000    -4.472000000     2.019000000
H    -2.569000000    -4.863000000     1.010000000
C    -2.747000000    -2.677000000     3.580000000
H    -2.991000000    -1.640000000     3.795000000
O    -3.878000000    -2.902000000     0.029000000
H    -2.600000000    -1.614000000     1.039000000
C    -5.034000000     0.278000000    -0.088000000
C    -5.460000000    -0.768000000    -1.085000000
H    -6.186000000    -0.385000000    -1.805000000
H    -6.015000000    -1.514000000    -0.513000000
C    -4.243000000    -1.380000000    -1.810000000
C    -3.807000000    -0.880000000    -3.052000000
H    -4.292000000    -0.078000000    -3.603000000
C    -3.557000000    -2.419000000    -1.209000000
C    -2.497000000    -3.038000000    -1.884000000
H    -2.052000000    -3.924000000    -1.439000000
C    -2.018000000    -2.512000000    -3.050000000
O    -0.884000000    -3.106000000    -3.543000000
C     0.300000000    -2.352000000    -3.329000000
C     1.515000000    -3.113000000    -2.812000000
C     1.262000000    -4.178000000    -1.905000000
H     0.258000000    -4.361000000    -1.531000000
C     2.795000000    -2.872000000    -3.324000000
H     3.010000000    -2.104000000    -4.062000000
O     0.559000000    -1.709000000    -4.615000000
H     0.206000000    -1.517000000    -2.618000000
C    -2.665000000    -1.448000000    -3.686000000
C    -2.137000000    -0.909000000    -5.026000000
H    -2.947000000    -0.451000000    -5.598000000
H    -1.854000000    -1.732000000    -5.687000000
C    -0.995000000     0.066000000    -4.855000000
C     0.312000000    -0.365000000    -4.651000000
C     1.356000000     0.547000000    -4.423000000
H     2.330000000     0.081000000    -4.300000000
C     1.086000000     1.923000000    -4.305000000
O     2.029000000     2.749000000    -3.902000000
C     2.007000000     2.917000000    -2.438000000
H     1.458000000     2.059000000    -2.025000000
C     3.414000000     2.813000000    -1.857000000
C     3.708000000     3.387000000    -0.615000000
H     2.957000000     3.891000000    -0.012000000
C     4.413000000     2.098000000    -2.540000000
H     4.238000000     1.625000000    -3.503000000
C     5.638000000     1.858000000    -1.911000000
O     6.647000000     1.073000000    -2.497000000
C     5.960000000     2.513000000    -0.787000000
H     7.009000000     2.503000000    -0.502000000
C     5.007000000     3.298000000    -0.127000000
O     5.445000000     4.262000000     0.831000000
C     4.665000000     4.744000000     1.848000000
C     3.921000000     3.834000000     2.680000000
H     4.064000000     2.764000000     2.553000000
C     4.596000000     6.129000000     1.986000000
H     5.154000000     6.839000000     1.380000000
C     3.738000000     6.707000000     2.898000000
H     3.729000000     7.792000000     2.961000000
C     2.907000000     5.797000000     3.614000000
H     2.201000000     6.187000000     4.343000000
C     3.121000000     4.412000000     3.681000000
O     2.515000000     3.565000000     4.580000000
C     1.154000000     3.297000000     4.637000000
C     0.674000000     2.613000000     5.648000000
H     1.326000000     2.299000000     6.459000000
C    -0.677000000     2.184000000     5.725000000
O    -1.162000000     1.726000000     6.950000000
C    -1.990000000     0.626000000     6.994000000
C    -1.563000000    -0.556000000     6.360000000
H    -0.634000000    -0.530000000     5.797000000
C    -3.205000000     0.663000000     7.616000000
H    -3.670000000     1.577000000     7.978000000
C    -4.042000000    -0.508000000     7.630000000
H    -5.092000000    -0.548000000     7.907000000
C    -3.570000000    -1.674000000     7.000000000
H    -4.226000000    -2.531000000     6.873000000
C    -2.321000000    -1.705000000     6.392000000
O    -1.826000000    -2.865000000     5.822000000
C    -2.111000000    -3.376000000     4.568000000
C    -1.644000000    -4.621000000     4.212000000
H    -0.953000000    -5.153000000     4.860000000
C    -1.834000000    -5.214000000     3.018000000
O    -1.274000000    -6.493000000     2.710000000
C    -0.673000000    -6.874000000     1.406000000
C     0.373000000    -6.101000000     0.924000000
H     0.795000000    -5.320000000     1.551000000
C    -1.228000000    -7.867000000     0.555000000
H    -2.037000000    -8.525000000     0.860000000
C    -0.753000000    -8.142000000    -0.716000000
H    -1.064000000    -8.969000000    -1.349000000
C     0.427000000    -7.480000000    -1.078000000
H     0.951000000    -7.741000000    -1.994000000
C     0.981000000    -6.557000000    -0.229000000
O     2.189000000    -6.026000000    -0.593000000
C     2.366000000    -5.042000000    -1.537000000
C     3.591000000    -4.781000000    -2.121000000
H     4.413000000    -5.445000000    -1.863000000
C     3.844000000    -3.724000000    -2.958000000
O     5.129000000    -3.433000000    -3.381000000
C     5.549000000    -2.182000000    -3.830000000
C     5.594000000    -1.952000000    -5.174000000
H     5.364000000    -2.761000000    -5.863000000
C     5.894000000    -0.700000000    -5.664000000
H     5.803000000    -0.374000000    -6.697000000
C     6.205000000     0.237000000    -4.714000000
H     6.448000000     1.260000000    -4.990000000
C     6.307000000     0.031000000    -3.337000000
C     5.950000000    -1.225000000    -2.885000000
H     5.937000000    -1.419000000    -1.816000000
O     8.126000000    -2.765000000     2.814000000
H     8.111000000    -2.679000000     1.861000000
H     9.010000000    -3.072000000     3.013000000
O     5.947000000    -5.025000000     6.293000000
H     5.233000000    -4.891000000     6.916000000
H     5.575000000    -4.780000000     5.446000000
O     4.984000000    -5.322000000     1.588000000
H     5.650000000    -5.001000000     2.197000000
H     4.384000000    -4.584000000     1.478000000
O     3.660000000     0.132000000     4.880000000
H     4.006000000     0.658000000     4.159000000
H     3.382000000    -0.686000000     4.468000000
O     5.548000000    -3.361000000     3.971000000
H     6.380000000    -3.310000000     3.500000000
H     4.898000000    -3.041000000     3.345000000
O     3.453000000    -7.536000000     1.294000000
H     4.158000000    -6.948000000     1.564000000
H     2.928000000    -7.017000000     0.685000000
O     3.674000000     1.923000000     7.749000000
H     4.118000000     1.179000000     7.340000000
H     4.172000000     2.687000000     7.460000000
O     6.062000000     0.625000000     2.824000000
H     6.977000000     0.624000000     2.542000000
H     5.611000000     0.087000000     2.173000000
O     5.604000000    -1.209000000     0.851000000
H     4.986000000    -1.834000000     1.229000000
H     6.310000000    -1.752000000     0.500000000
O     5.356000000    -0.586000000     7.029000000
H     4.953000000    -0.358000000     6.191000000
H     6.153000000    -0.056000000     7.063000000
O     2.400000000    -7.910000000     3.946000000
H     2.906000000    -7.936000000     3.134000000
H     2.091000000    -7.006000000     4.007000000
O     3.520000000    -2.945000000     6.275000000
H     4.461000000    -3.104000000     6.197000000
H     3.275000000    -2.546000000     5.440000000
O     7.707000000    -3.075000000     0.134000000
H     8.243000000    -3.069000000    -0.659000000
H     6.923000000    -3.566000000    -0.110000000
O     7.671000000    -1.276000000     5.094000000
H     7.798000000    -1.517000000     4.176000000
H     7.111000000    -1.966000000     5.448000000
O     1.711000000    -5.637000000     6.464000000
H     2.632000000    -5.711000000     6.716000000
H     1.361000000    -4.952000000     7.034000000
O     6.941000000     3.581000000     3.710000000
H     7.589000000     3.016000000     4.132000000
H     6.278000000     2.976000000     3.377000000
O     1.995000000    -5.159000000     3.761000000
H     2.640000000    -4.518000000     3.461000000
H     1.839000000    -4.932000000     4.678000000
O     6.560000000    -6.586000000    -0.649000000
H     6.585000000    -7.442000000    -0.220000000
H     5.938000000    -6.077000000    -0.130000000
O     1.990000000    -0.454000000     8.349000000
H     2.634000000    -0.733000000     7.698000000
H     2.135000000     0.488000000     8.440000000
