201
-1284.30623
C     0.633000000     1.659000000     5.008000000
H    -0.171000000     0.942000000     5.152000000
C     0.567000000     2.684000000     4.026000000
C     1.720000000     3.398000000     3.682000000
H     1.683000000     4.185000000     2.933000000
C    -0.704000000     2.834000000     3.185000000
O    -1.982000000     2.620000000     3.950000000
H    -0.714000000     2.012000000     2.454000000
O    -0.774000000     4.078000000     2.380000000
C    -1.244000000     4.157000000     1.109000000
C    -0.288000000     4.438000000     0.172000000
H     0.714000000     4.701000000     0.499000000
C    -0.604000000     4.276000000    -1.211000000
O     0.385000000     4.308000000    -2.134000000
C    -1.931000000     4.032000000    -1.607000000
C    -2.264000000     4.036000000    -3.126000000
H    -3.311000000     4.315000000    -3.266000000
C    -2.081000000     2.623000000    -3.713000000
C    -3.118000000     1.721000000    -3.645000000
H    -4.039000000     2.061000000    -3.177000000
H    -1.694000000     4.828000000    -3.614000000
C    -2.921000000     3.985000000    -0.586000000
H    -3.970000000     3.873000000    -0.846000000
C    -2.609000000     4.033000000     0.784000000
C    -3.713000000     3.793000000     1.868000000
H    -4.663000000     4.099000000     1.426000000
H    -3.594000000     4.558000000     2.638000000
C    -3.693000000     2.339000000     2.336000000
C    -4.547000000     1.448000000     1.673000000
H    -5.173000000     1.777000000     0.848000000
C    -2.844000000     1.841000000     3.302000000
C    -2.832000000     0.491000000     3.679000000
H    -2.144000000     0.171000000     4.458000000
C    -3.622000000    -0.401000000     2.968000000
O    -3.422000000    -1.707000000     3.206000000
C    -2.528000000    -2.414000000     2.308000000
C    -1.615000000    -3.384000000     3.015000000
C    -1.089000000    -4.459000000     2.351000000
H    -1.327000000    -4.585000000     1.298000000
C    -1.292000000    -3.215000000     4.376000000
H    -1.659000000    -2.366000000     4.948000000
O    -3.307000000    -3.245000000     1.347000000
H    -1.835000000    -1.786000000     1.729000000
C    -4.511000000     0.060000000     1.975000000
C    -5.268000000    -0.909000000     1.130000000
H    -6.163000000    -0.452000000     0.703000000
H    -5.652000000    -1.773000000     1.677000000
C    -4.419000000    -1.413000000    -0.016000000
C    -4.490000000    -0.757000000    -1.268000000
H    -5.129000000     0.116000000    -1.372000000
C    -3.534000000    -2.547000000     0.140000000
C    -2.777000000    -2.973000000    -0.972000000
H    -2.117000000    -3.835000000    -0.924000000
C    -2.990000000    -2.342000000    -2.203000000
O    -2.213000000    -2.830000000    -3.259000000
C    -1.055000000    -2.073000000    -3.600000000
C     0.251000000    -2.920000000    -3.818000000
C     0.407000000    -3.998000000    -2.952000000
H    -0.327000000    -4.291000000    -2.206000000
C     1.329000000    -2.491000000    -4.607000000
H     1.185000000    -1.541000000    -5.114000000
O    -1.344000000    -1.345000000    -4.807000000
H    -0.784000000    -1.419000000    -2.758000000
C    -3.783000000    -1.197000000    -2.403000000
C    -3.993000000    -0.569000000    -3.776000000
H    -4.945000000    -0.057000000    -3.931000000
H    -3.980000000    -1.294000000    -4.592000000
C    -2.903000000     0.380000000    -4.031000000
C    -1.670000000     0.000000000    -4.602000000
C    -0.660000000     0.928000000    -4.737000000
H     0.241000000     0.627000000    -5.265000000
C    -0.845000000     2.248000000    -4.262000000
O     0.227000000     3.106000000    -4.159000000
C     0.792000000     3.135000000    -2.807000000
H     0.320000000     2.334000000    -2.220000000
C     2.327000000     3.038000000    -2.806000000
C     3.092000000     3.512000000    -1.733000000
H     2.583000000     4.128000000    -0.996000000
C     2.922000000     2.344000000    -3.799000000
H     2.343000000     1.869000000    -4.588000000
C     4.315000000     2.254000000    -3.849000000
O     4.981000000     1.778000000    -4.966000000
C     5.114000000     2.824000000    -2.910000000
H     6.193000000     2.727000000    -2.994000000
C     4.533000000     3.438000000    -1.780000000
O     5.373000000     3.874000000    -0.759000000
C     4.891000000     4.515000000     0.340000000
C     4.785000000     3.776000000     1.538000000
H     5.082000000     2.735000000     1.642000000
C     4.440000000     5.809000000     0.328000000
H     4.550000000     6.440000000    -0.550000000
C     3.827000000     6.416000000     1.441000000
H     3.382000000     7.398000000     1.303000000
C     3.768000000     5.714000000     2.566000000
H     3.277000000     6.213000000     3.397000000
C     4.191000000     4.406000000     2.652000000
O     4.064000000     3.785000000     3.909000000
C     2.935000000     3.144000000     4.303000000
C     2.898000000     2.273000000     5.376000000
H     3.750000000     2.128000000     6.036000000
C     1.849000000     1.420000000     5.645000000
O     1.975000000     0.402000000     6.600000000
C     1.026000000    -0.452000000     7.068000000
C     0.818000000    -1.648000000     6.438000000
H     1.388000000    -1.930000000     5.555000000
C     0.299000000    -0.194000000     8.243000000
H     0.460000000     0.725000000     8.801000000
C    -0.656000000    -1.124000000     8.707000000
H    -1.144000000    -1.024000000     9.673000000
C    -0.860000000    -2.319000000     8.017000000
H    -1.557000000    -3.046000000     8.426000000
C    -0.094000000    -2.586000000     6.905000000
O    -0.127000000    -3.884000000     6.366000000
C    -0.437000000    -4.078000000     4.992000000
C     0.059000000    -5.182000000     4.318000000
H     0.804000000    -5.857000000     4.730000000
C    -0.189000000    -5.383000000     2.966000000
O     0.266000000    -6.501000000     2.282000000
C     0.118000000    -6.675000000     0.926000000
C     1.090000000    -6.213000000    -0.027000000
H     1.895000000    -5.640000000     0.426000000
C    -1.002000000    -7.368000000     0.468000000
H    -1.731000000    -7.655000000     1.221000000
C    -1.180000000    -7.640000000    -0.926000000
H    -2.075000000    -8.146000000    -1.277000000
C    -0.182000000    -7.200000000    -1.821000000
H    -0.418000000    -7.280000000    -2.879000000
C     0.868000000    -6.416000000    -1.374000000
O     1.836000000    -5.812000000    -2.188000000
C     1.613000000    -4.725000000    -3.050000000
C     2.599000000    -4.407000000    -3.971000000
H     3.440000000    -5.076000000    -4.136000000
C     2.472000000    -3.249000000    -4.704000000
O     3.529000000    -2.769000000    -5.470000000
C     3.645000000    -1.517000000    -5.965000000
C     3.380000000    -1.310000000    -7.319000000
H     2.808000000    -2.005000000    -7.929000000
C     3.582000000     0.018000000    -7.797000000
H     3.257000000     0.197000000    -8.819000000
C     4.102000000     1.031000000    -6.975000000
H     4.287000000     1.987000000    -7.459000000
C     4.447000000     0.724000000    -5.647000000
C     4.171000000    -0.538000000    -5.141000000
H     4.437000000    -0.897000000    -4.150000000
O     4.480000000    -8.774000000    -0.895000000
H     4.359000000    -7.913000000    -0.495000000
H     5.095000000    -8.620000000    -1.612000000
O     5.427000000    -3.849000000     6.612000000
H     5.184000000    -3.035000000     7.054000000
H     4.608000000    -4.172000000     6.237000000
O     5.673000000    -2.146000000    -0.026000000
H     5.348000000    -1.266000000     0.165000000
H     4.882000000    -2.678000000    -0.120000000
O     5.004000000    -1.153000000     6.800000000
H     5.120000000    -0.633000000     7.595000000
H     5.450000000    -0.652000000     6.118000000
O     4.668000000     0.341000000    -0.047000000
H     4.196000000     0.363000000     0.785000000
H     4.845000000     1.260000000    -0.247000000
O     2.983000000    -8.262000000     5.328000000
H     3.490000000    -8.575000000     6.077000000
H     3.614000000    -7.773000000     4.799000000
O     3.212000000    -9.205000000     2.491000000
H     3.199000000    -8.579000000     3.215000000
H     2.296000000    -9.274000000     2.219000000
O     7.742000000    -2.380000000     1.918000000
H     7.144000000    -2.223000000     1.187000000
H     8.493000000    -2.822000000     1.522000000
O     4.510000000    -6.454000000     0.697000000
H     4.220000000    -6.957000000     1.459000000
H     4.472000000    -5.542000000     0.984000000
O     2.987000000    -4.713000000     5.745000000
H     2.886000000    -4.406000000     4.844000000
H     3.120000000    -5.657000000     5.663000000
O     7.672000000    -4.275000000     5.251000000
H     6.964000000    -3.992000000     5.829000000
H     7.229000000    -4.557000000     4.450000000
O     7.271000000    -7.315000000     2.371000000
H     7.771000000    -6.710000000     2.918000000
H     7.316000000    -6.937000000     1.493000000
O     4.500000000    -1.632000000     3.940000000
H     4.166000000    -2.438000000     3.549000000
H     4.538000000    -1.818000000     4.878000000
O     6.841000000     0.176000000     2.969000000
H     6.022000000    -0.307000000     3.080000000
H     7.491000000    -0.344000000     3.442000000
O     7.247000000    -6.117000000    -0.392000000
H     6.309000000    -6.174000000    -0.213000000
H     7.374000000    -5.226000000    -0.720000000
O     6.128000000    -6.198000000    -3.127000000
H     6.227000000    -5.680000000    -2.328000000
H     6.783000000    -5.840000000    -3.727000000
O     4.563000000    -6.646000000     3.806000000
H     4.527000000    -5.691000000     3.867000000
H     5.379000000    -6.825000000     3.338000000
O     3.357000000     0.468000000     2.443000000
H     3.172000000     1.222000000     3.003000000
H     3.704000000    -0.195000000     3.040000000
O     6.219000000    -4.500000000     2.952000000
H     6.817000000    -3.792000000     2.713000000
H     5.390000000    -4.265000000     2.535000000
