201
-1241.55492
C     0.618000000     1.666000000     5.145000000
H    -0.333000000     1.189000000     5.371000000
C     0.685000000     2.606000000     4.112000000
C     1.968000000     3.034000000     3.711000000
H     2.036000000     3.646000000     2.815000000
C    -0.517000000     2.810000000     3.217000000
O    -1.789000000     2.507000000     3.842000000
H    -0.437000000     2.036000000     2.440000000
O    -0.661000000     4.089000000     2.655000000
C    -0.921000000     4.162000000     1.332000000
C     0.058000000     4.462000000     0.397000000
H     1.097000000     4.619000000     0.676000000
C    -0.289000000     4.594000000    -0.921000000
O     0.694000000     4.631000000    -1.897000000
C    -1.573000000     4.397000000    -1.337000000
C    -1.874000000     4.358000000    -2.804000000
H    -2.874000000     4.710000000    -3.067000000
C    -1.761000000     2.961000000    -3.432000000
C    -2.899000000     2.162000000    -3.522000000
H    -3.831000000     2.631000000    -3.218000000
H    -1.195000000     5.004000000    -3.364000000
C    -2.594000000     4.131000000    -0.394000000
H    -3.635000000     4.032000000    -0.691000000
C    -2.277000000     4.029000000     0.947000000
C    -3.474000000     3.813000000     1.857000000
H    -4.331000000     4.123000000     1.254000000
H    -3.403000000     4.326000000     2.818000000
C    -3.496000000     2.331000000     2.155000000
C    -4.410000000     1.492000000     1.479000000
H    -5.136000000     1.957000000     0.818000000
C    -2.727000000     1.779000000     3.132000000
C    -2.761000000     0.369000000     3.333000000
H    -2.154000000    -0.088000000     4.110000000
C    -3.575000000    -0.432000000     2.574000000
O    -3.472000000    -1.789000000     2.728000000
C    -2.735000000    -2.441000000     1.778000000
C    -1.829000000    -3.439000000     2.438000000
C    -1.566000000    -4.704000000     1.832000000
H    -2.216000000    -5.090000000     1.050000000
C    -0.954000000    -3.157000000     3.465000000
H    -0.961000000    -2.109000000     3.752000000
O    -3.683000000    -2.983000000     0.801000000
H    -2.108000000    -1.723000000     1.229000000
C    -4.396000000     0.140000000     1.641000000
C    -5.367000000    -0.742000000     0.830000000
H    -6.293000000    -0.209000000     0.602000000
H    -5.578000000    -1.666000000     1.372000000
C    -4.723000000    -1.171000000    -0.442000000
C    -4.798000000    -0.442000000    -1.596000000
H    -5.432000000     0.440000000    -1.560000000
C    -3.965000000    -2.313000000    -0.374000000
C    -3.339000000    -2.840000000    -1.510000000
H    -2.745000000    -3.745000000    -1.414000000
C    -3.406000000    -2.099000000    -2.675000000
O    -2.666000000    -2.549000000    -3.745000000
C    -1.406000000    -1.852000000    -4.091000000
C    -0.305000000    -2.776000000    -4.297000000
C    -0.226000000    -3.904000000    -3.439000000
H    -0.970000000    -4.058000000    -2.662000000
C     0.786000000    -2.455000000    -5.100000000
H     0.929000000    -1.522000000    -5.639000000
O    -1.557000000    -0.851000000    -5.109000000
H    -1.056000000    -1.312000000    -3.199000000
C    -4.037000000    -0.841000000    -2.692000000
C    -4.062000000    -0.081000000    -3.993000000
H    -4.938000000     0.569000000    -3.933000000
H    -4.158000000    -0.736000000    -4.862000000
C    -2.856000000     0.852000000    -4.126000000
C    -1.639000000     0.400000000    -4.642000000
C    -0.467000000     1.196000000    -4.355000000
H     0.523000000     0.815000000    -4.594000000
C    -0.570000000     2.443000000    -3.836000000
O     0.584000000     3.145000000    -3.649000000
C     1.101000000     3.366000000    -2.277000000
H     0.661000000     2.643000000    -1.575000000
C     2.659000000     3.125000000    -2.227000000
C     3.472000000     3.819000000    -1.303000000
H     3.046000000     4.724000000    -0.878000000
C     3.236000000     1.996000000    -2.859000000
H     2.613000000     1.465000000    -3.575000000
C     4.591000000     1.672000000    -2.672000000
O     5.126000000     0.463000000    -3.168000000
C     5.400000000     2.466000000    -1.869000000
H     6.441000000     2.219000000    -1.676000000
C     4.800000000     3.479000000    -1.118000000
O     5.598000000     4.256000000    -0.309000000
C     5.109000000     4.684000000     0.940000000
C     4.994000000     3.801000000     2.010000000
H     5.283000000     2.765000000     1.855000000
C     4.766000000     6.018000000     1.074000000
H     5.033000000     6.795000000     0.362000000
C     4.184000000     6.420000000     2.307000000
H     3.868000000     7.442000000     2.500000000
C     4.055000000     5.506000000     3.364000000
H     3.566000000     5.807000000     4.288000000
C     4.445000000     4.216000000     3.261000000
O     4.278000000     3.363000000     4.342000000
C     3.077000000     2.768000000     4.506000000
C     2.930000000     1.998000000     5.690000000
H     3.800000000     1.840000000     6.322000000
C     1.680000000     1.420000000     6.014000000
O     1.668000000     0.584000000     7.058000000
C     0.888000000    -0.548000000     7.047000000
C     1.108000000    -1.472000000     6.087000000
H     1.881000000    -1.328000000     5.336000000
C    -0.110000000    -0.746000000     7.989000000
H    -0.345000000     0.099000000     8.631000000
C    -0.899000000    -1.892000000     7.906000000
H    -1.768000000    -2.032000000     8.543000000
C    -0.660000000    -2.879000000     6.962000000
H    -1.324000000    -3.739000000     6.920000000
C     0.379000000    -2.692000000     6.101000000
O     0.766000000    -3.670000000     5.171000000
C    -0.013000000    -4.024000000     4.053000000
C     0.036000000    -5.321000000     3.596000000
H     0.752000000    -5.986000000     4.072000000
C    -0.673000000    -5.652000000     2.414000000
O    -0.483000000    -6.915000000     1.832000000
C    -0.640000000    -6.963000000     0.459000000
C     0.362000000    -6.454000000    -0.406000000
H     1.376000000    -6.307000000    -0.045000000
C    -1.849000000    -7.455000000    -0.102000000
H    -2.646000000    -7.851000000     0.522000000
C    -1.946000000    -7.467000000    -1.521000000
H    -2.823000000    -7.863000000    -2.026000000
C    -0.958000000    -6.858000000    -2.333000000
H    -0.964000000    -6.783000000    -3.417000000
C     0.168000000    -6.349000000    -1.751000000
O     1.138000000    -5.781000000    -2.541000000
C     0.842000000    -4.809000000    -3.486000000
C     1.925000000    -4.442000000    -4.281000000
H     2.716000000    -5.186000000    -4.340000000
C     1.912000000    -3.322000000    -5.136000000
O     3.060000000    -2.980000000    -5.905000000
C     3.707000000    -1.808000000    -5.809000000
C     3.806000000    -1.008000000    -6.921000000
H     3.507000000    -1.450000000    -7.868000000
C     4.362000000     0.268000000    -6.709000000
H     4.504000000     0.985000000    -7.513000000
C     4.778000000     0.704000000    -5.458000000
H     5.145000000     1.719000000    -5.331000000
C     4.759000000    -0.098000000    -4.382000000
C     4.164000000    -1.367000000    -4.570000000
H     4.057000000    -1.942000000    -3.655000000
O     5.673000000    -3.234000000     5.530000000
H     5.527000000    -3.635000000     4.673000000
H     6.625000000    -3.213000000     5.626000000
O     3.632000000    -4.493000000     6.982000000
H     3.363000000    -4.826000000     6.126000000
H     4.465000000    -4.052000000     6.817000000
O     6.343000000    -3.370000000     0.591000000
H     6.253000000    -2.682000000    -0.068000000
H     5.490000000    -3.805000000     0.601000000
O     4.558000000    -0.829000000     6.180000000
H     4.852000000    -0.827000000     7.091000000
H     4.959000000    -1.611000000     5.801000000
O     6.233000000    -1.654000000    -1.380000000
H     6.006000000    -1.185000000    -0.577000000
H     6.040000000    -1.033000000    -2.083000000
O     1.721000000    -7.905000000     5.646000000
H     1.875000000    -7.530000000     6.514000000
H     2.178000000    -7.315000000     5.046000000
O     3.210000000    -9.055000000     0.162000000
H     3.534000000    -8.266000000     0.597000000
H     2.436000000    -9.306000000     0.667000000
O     8.767000000    -3.892000000     2.238000000
H     8.120000000    -3.742000000     1.549000000
H     9.424000000    -4.456000000     1.831000000
O     3.707000000    -5.755000000    -1.330000000
H     2.837000000    -6.099000000    -1.533000000
H     3.562000000    -5.154000000    -0.600000000
O     3.171000000    -6.027000000     4.282000000
H     3.210000000    -5.216000000     3.774000000
H     3.674000000    -6.657000000     3.767000000
O     6.764000000    -6.460000000     4.599000000
H     6.850000000    -7.134000000     3.925000000
H     6.391000000    -5.708000000     4.139000000
O     4.505000000    -1.046000000     2.923000000
H     3.980000000    -1.846000000     2.954000000
H     4.517000000    -0.732000000     3.827000000
O     1.281000000    -9.715000000     1.971000000
H     0.974000000    -8.964000000     2.477000000
H     0.570000000    -9.896000000     1.356000000
O     6.763000000    -8.228000000     2.441000000
H     6.332000000    -8.204000000     1.586000000
H     7.596000000    -8.669000000     2.276000000
O     7.052000000    -0.337000000     2.650000000
H     6.148000000    -0.646000000     2.704000000
H     7.555000000    -0.979000000     3.151000000
O     6.424000000    -5.569000000    -1.091000000
H     5.469000000    -5.631000000    -1.126000000
H     6.594000000    -4.734000000    -0.655000000
O     3.942000000    -6.929000000     1.762000000
H     3.893000000    -6.079000000     1.324000000
H     4.836000000    -6.972000000     2.102000000
O     4.359000000     0.028000000     0.209000000
H     4.525000000    -0.333000000     1.080000000
H     3.415000000    -0.076000000     0.083000000
O     5.842000000    -4.520000000     2.992000000
H     6.243000000    -4.192000000     2.187000000
H     4.929000000    -4.237000000     2.937000000
