201
-1256.56966
C     0.822000000     0.914000000     4.210000000
H    -0.135000000     0.399000000     4.189000000
C     0.966000000     2.147000000     3.661000000
C     2.224000000     2.772000000     3.647000000
H     2.373000000     3.777000000     3.260000000
C    -0.265000000     2.760000000     3.014000000
O    -1.502000000     2.665000000     3.780000000
H    -0.502000000     2.186000000     2.106000000
O    -0.132000000     4.141000000     2.664000000
C    -0.458000000     4.389000000     1.305000000
C     0.559000000     4.590000000     0.375000000
H     1.574000000     4.536000000     0.762000000
C     0.313000000     4.866000000    -0.952000000
O     1.430000000     4.802000000    -1.827000000
C    -1.016000000     4.770000000    -1.485000000
C    -1.332000000     4.820000000    -2.974000000
H    -2.316000000     5.233000000    -3.208000000
C    -1.249000000     3.469000000    -3.479000000
C    -2.438000000     2.744000000    -3.608000000
H    -3.356000000     3.285000000    -3.392000000
H    -0.606000000     5.472000000    -3.464000000
C    -2.044000000     4.683000000    -0.562000000
H    -3.063000000     4.664000000    -0.940000000
C    -1.821000000     4.504000000     0.833000000
C    -3.037000000     4.398000000     1.809000000
H    -3.962000000     4.827000000     1.417000000
H    -2.812000000     4.892000000     2.756000000
C    -3.334000000     2.876000000     2.095000000
C    -4.333000000     2.240000000     1.371000000
H    -4.891000000     2.714000000     0.568000000
C    -2.608000000     2.133000000     3.075000000
C    -2.896000000     0.806000000     3.282000000
H    -2.268000000     0.250000000     3.973000000
C    -3.862000000     0.154000000     2.536000000
O    -3.873000000    -1.200000000     2.726000000
C    -3.318000000    -2.167000000     1.750000000
C    -2.735000000    -3.393000000     2.433000000
C    -2.379000000    -4.508000000     1.663000000
H    -2.667000000    -4.476000000     0.616000000
C    -2.530000000    -3.363000000     3.825000000
H    -2.828000000    -2.521000000     4.445000000
O    -4.341000000    -2.526000000     0.772000000
H    -2.505000000    -1.594000000     1.281000000
C    -4.597000000     0.874000000     1.575000000
C    -5.610000000     0.116000000     0.731000000
H    -6.399000000     0.781000000     0.372000000
H    -6.104000000    -0.681000000     1.292000000
C    -4.894000000    -0.439000000    -0.431000000
C    -4.740000000     0.323000000    -1.616000000
H    -5.278000000     1.257000000    -1.760000000
C    -4.381000000    -1.751000000    -0.349000000
C    -3.803000000    -2.283000000    -1.523000000
H    -3.470000000    -3.315000000    -1.443000000
C    -3.502000000    -1.456000000    -2.618000000
O    -2.748000000    -1.971000000    -3.632000000
C    -1.343000000    -1.538000000    -3.769000000
C    -0.363000000    -2.697000000    -3.974000000
C    -0.532000000    -3.926000000    -3.427000000
H    -1.405000000    -4.155000000    -2.823000000
C     0.841000000    -2.481000000    -4.687000000
H     1.029000000    -1.497000000    -5.108000000
O    -1.142000000    -0.537000000    -4.796000000
H    -1.110000000    -1.078000000    -2.798000000
C    -3.968000000    -0.125000000    -2.718000000
C    -3.807000000     0.754000000    -3.914000000
H    -4.516000000     1.574000000    -3.784000000
H    -3.969000000     0.157000000    -4.814000000
C    -2.444000000     1.403000000    -3.942000000
C    -1.234000000     0.790000000    -4.401000000
C    -0.050000000     1.489000000    -4.300000000
H     0.834000000     0.973000000    -4.667000000
C    -0.043000000     2.833000000    -3.860000000
O     1.191000000     3.356000000    -3.711000000
C     1.656000000     3.495000000    -2.342000000
H     1.137000000     2.655000000    -1.859000000
C     3.109000000     3.067000000    -2.046000000
C     3.932000000     3.707000000    -1.148000000
H     3.622000000     4.649000000    -0.702000000
C     3.577000000     1.945000000    -2.721000000
H     2.883000000     1.346000000    -3.306000000
C     4.793000000     1.396000000    -2.440000000
O     5.230000000     0.192000000    -2.937000000
C     5.674000000     2.037000000    -1.539000000
H     6.676000000     1.626000000    -1.443000000
C     5.263000000     3.187000000    -0.918000000
O     6.118000000     3.897000000    -0.053000000
C     5.721000000     4.282000000     1.171000000
C     5.420000000     3.345000000     2.156000000
H     5.543000000     2.330000000     1.787000000
C     5.738000000     5.622000000     1.523000000
H     6.008000000     6.292000000     0.711000000
C     5.340000000     5.946000000     2.813000000
H     5.242000000     6.988000000     3.106000000
C     4.914000000     5.010000000     3.737000000
H     4.578000000     5.339000000     4.717000000
C     4.998000000     3.657000000     3.434000000
O     4.563000000     2.723000000     4.355000000
C     3.332000000     2.149000000     4.250000000
C     3.174000000     0.944000000     4.804000000
H     3.975000000     0.517000000     5.403000000
C     1.972000000     0.254000000     4.823000000
O     1.877000000    -1.050000000     5.361000000
C     0.796000000    -1.497000000     6.097000000
C     0.026000000    -2.580000000     5.592000000
H     0.136000000    -2.974000000     4.585000000
C     0.521000000    -1.007000000     7.379000000
H     1.099000000    -0.215000000     7.850000000
C    -0.506000000    -1.646000000     8.126000000
H    -0.728000000    -1.271000000     9.122000000
C    -1.137000000    -2.874000000     7.686000000
H    -1.894000000    -3.442000000     8.221000000
C    -0.917000000    -3.193000000     6.344000000
O    -1.555000000    -4.357000000     5.765000000
C    -1.879000000    -4.448000000     4.417000000
C    -1.506000000    -5.567000000     3.686000000
H    -0.885000000    -6.333000000     4.143000000
C    -1.657000000    -5.550000000     2.294000000
O    -1.229000000    -6.631000000     1.605000000
C    -1.529000000    -6.815000000     0.247000000
C    -0.638000000    -6.325000000    -0.738000000
H     0.196000000    -5.709000000    -0.411000000
C    -2.523000000    -7.689000000    -0.162000000
H    -3.119000000    -8.166000000     0.612000000
C    -2.725000000    -8.022000000    -1.455000000
H    -3.629000000    -8.555000000    -1.740000000
C    -1.855000000    -7.470000000    -2.412000000
H    -1.936000000    -7.717000000    -3.468000000
C    -0.815000000    -6.589000000    -2.117000000
O     0.170000000    -6.227000000    -3.033000000
C     0.334000000    -4.954000000    -3.607000000
C     1.491000000    -4.697000000    -4.307000000
H     2.241000000    -5.484000000    -4.306000000
C     1.794000000    -3.467000000    -4.892000000
O     3.016000000    -3.207000000    -5.474000000
C     3.737000000    -1.994000000    -5.420000000
C     4.116000000    -1.408000000    -6.608000000
H     3.953000000    -1.976000000    -7.520000000
C     4.854000000    -0.235000000    -6.585000000
H     5.245000000     0.126000000    -7.532000000
C     5.272000000     0.255000000    -5.331000000
H     5.968000000     1.084000000    -5.229000000
C     4.774000000    -0.298000000    -4.134000000
C     3.914000000    -1.412000000    -4.142000000
H     3.610000000    -1.842000000    -3.192000000
O     1.385000000    -8.853000000    -3.105000000
H     0.982000000    -7.986000000    -3.063000000
H     2.297000000    -8.705000000    -2.855000000
O     5.620000000    -4.295000000    -1.507000000
H     4.790000000    -3.968000000    -1.159000000
H     5.461000000    -5.225000000    -1.669000000
O     5.165000000    -7.312000000     4.828000000
H     5.538000000    -6.581000000     4.336000000
H     4.219000000    -7.224000000     4.709000000
O     2.191000000    -8.794000000     3.639000000
H     2.305000000    -7.960000000     3.184000000
H     2.016000000    -8.549000000     4.548000000
O     5.629000000    -2.106000000     1.126000000
H     4.781000000    -2.233000000     0.700000000
H     5.417000000    -2.011000000     2.055000000
O     6.768000000    -2.204000000    -2.641000000
H     6.344000000    -2.956000000    -2.227000000
H     6.165000000    -1.477000000    -2.491000000
O     8.013000000    -3.491000000    -0.201000000
H     7.387000000    -3.982000000    -0.733000000
H     7.473000000    -2.879000000     0.300000000
O     5.770000000    -4.727000000     6.780000000
H     5.334000000    -4.699000000     5.929000000
H     6.664000000    -5.006000000     6.583000000
O     9.287000000    -5.582000000     1.038000000
H     9.457000000    -6.131000000     0.273000000
H     8.599000000    -4.981000000     0.753000000
O     3.554000000    -6.510000000    -0.901000000
H     3.528000000    -6.986000000    -0.071000000
H     3.547000000    -5.587000000    -0.648000000
O     7.374000000     0.154000000     0.205000000
H     7.339000000     0.423000000     1.123000000
H     7.049000000    -0.747000000     0.207000000
O     2.170000000    -6.199000000     2.842000000
H     2.311000000    -5.355000000     2.413000000
H     2.140000000    -5.991000000     3.776000000
O     2.849000000    -5.686000000     5.664000000
H     2.035000000    -5.983000000     6.070000000
H     3.456000000    -5.577000000     6.396000000
O     6.844000000    -1.493000000     4.708000000
H     6.080000000    -1.861000000     4.264000000
H     6.542000000    -1.317000000     5.599000000
O     6.513000000    -7.337000000    -0.940000000
H     6.903000000    -8.200000000    -0.802000000
H     6.176000000    -7.086000000    -0.081000000
O     4.348000000    -8.561000000     1.074000000
H     4.851000000    -9.085000000     1.698000000
H     3.529000000    -9.042000000     0.962000000
O     4.113000000    -2.463000000     3.905000000
H     3.458000000    -1.939000000     4.367000000
H     3.606000000    -3.141000000     3.460000000
O     4.044000000    -8.532000000    -2.596000000
H     4.869000000    -8.965000000    -2.376000000
H     3.982000000    -7.805000000    -1.976000000
O     6.130000000    -4.857000000     3.850000000
H     5.462000000    -4.450000000     3.298000000
H     6.958000000    -4.499000000     3.528000000
