201
-1227.15105
C    -3.079000000    -2.493000000     2.708000000
H    -3.236000000    -3.125000000     1.838000000
C    -3.556000000    -1.183000000     2.669000000
C    -3.361000000    -0.367000000     3.795000000
H    -3.504000000     0.705000000     3.681000000
C    -3.901000000    -0.571000000     1.367000000
O    -4.610000000    -1.439000000     0.540000000
H    -2.915000000    -0.499000000     0.884000000
O    -4.615000000     0.688000000     1.510000000
C    -4.158000000     1.694000000     0.682000000
C    -3.225000000     2.552000000     1.233000000
H    -2.936000000     2.328000000     2.256000000
C    -2.709000000     3.546000000     0.484000000
O    -1.864000000     4.415000000     1.219000000
C    -3.051000000     3.741000000    -0.874000000
C    -2.429000000     4.863000000    -1.697000000
H    -3.008000000     5.005000000    -2.612000000
C    -0.948000000     4.605000000    -2.113000000
C    -0.758000000     4.026000000    -3.381000000
H    -1.659000000     3.880000000    -3.970000000
H    -2.433000000     5.802000000    -1.140000000
C    -4.040000000     2.836000000    -1.419000000
H    -4.350000000     3.036000000    -2.442000000
C    -4.546000000     1.770000000    -0.698000000
C    -5.371000000     0.685000000    -1.364000000
H    -5.935000000     0.985000000    -2.249000000
H    -6.093000000     0.341000000    -0.620000000
C    -4.486000000    -0.472000000    -1.718000000
C    -3.862000000    -0.536000000    -2.948000000
H    -3.898000000     0.295000000    -3.648000000
C    -4.279000000    -1.561000000    -0.839000000
C    -3.409000000    -2.580000000    -1.197000000
H    -3.290000000    -3.404000000    -0.497000000
C    -2.820000000    -2.658000000    -2.433000000
O    -2.004000000    -3.744000000    -2.630000000
C    -0.586000000    -3.373000000    -2.447000000
C     0.140000000    -4.562000000    -1.714000000
C     1.552000000    -4.595000000    -1.710000000
H     2.079000000    -3.828000000    -2.272000000
C    -0.460000000    -5.571000000    -0.911000000
H    -1.536000000    -5.691000000    -0.813000000
O     0.088000000    -3.005000000    -3.742000000
H    -0.404000000    -2.514000000    -1.784000000
C    -3.065000000    -1.607000000    -3.335000000
C    -2.322000000    -1.544000000    -4.693000000
H    -2.889000000    -1.062000000    -5.491000000
H    -2.207000000    -2.540000000    -5.126000000
C    -0.979000000    -0.878000000    -4.626000000
C    -0.896000000     0.490000000    -4.855000000
H    -1.846000000     0.981000000    -5.052000000
C     0.136000000    -1.691000000    -4.160000000
C     1.425000000    -1.081000000    -4.149000000
H     2.359000000    -1.618000000    -3.998000000
C     1.498000000     0.288000000    -4.398000000
O     2.708000000     0.898000000    -4.165000000
C     2.916000000     1.533000000    -2.876000000
C     4.257000000     1.188000000    -2.361000000
C     4.817000000    -0.052000000    -2.576000000
H     4.221000000    -0.724000000    -3.189000000
C     4.942000000     1.934000000    -1.382000000
H     4.530000000     2.885000000    -1.055000000
O     2.799000000     2.920000000    -3.049000000
H     2.086000000     1.197000000    -2.237000000
C     0.361000000     1.080000000    -4.811000000
C     0.442000000     2.600000000    -4.994000000
H    -0.387000000     2.950000000    -5.613000000
H     1.399000000     2.670000000    -5.514000000
C     0.470000000     3.408000000    -3.712000000
C     1.577000000     3.545000000    -2.831000000
C     1.403000000     4.253000000    -1.618000000
H     2.268000000     4.257000000    -0.961000000
C     0.110000000     4.720000000    -1.182000000
O    -0.031000000     5.053000000     0.077000000
C    -0.549000000     4.062000000     0.999000000
H    -0.510000000     3.040000000     0.594000000
C     0.097000000     3.993000000     2.304000000
C    -0.604000000     4.128000000     3.504000000
H    -1.651000000     4.418000000     3.477000000
C     1.439000000     3.658000000     2.312000000
H     1.975000000     3.454000000     1.389000000
C     2.081000000     3.617000000     3.514000000
O     3.460000000     3.319000000     3.604000000
C     1.359000000     3.754000000     4.689000000
H     1.839000000     3.664000000     5.660000000
C     0.011000000     3.943000000     4.730000000
O    -0.749000000     4.107000000     5.881000000
C    -1.768000000     3.309000000     6.177000000
C    -1.749000000     1.965000000     5.907000000
H    -0.799000000     1.558000000     5.572000000
C    -2.967000000     3.917000000     6.594000000
H    -3.055000000     4.995000000     6.703000000
C    -4.084000000     3.168000000     6.844000000
H    -4.951000000     3.756000000     7.135000000
C    -4.051000000     1.818000000     6.731000000
H    -4.962000000     1.234000000     6.834000000
C    -2.875000000     1.216000000     6.153000000
O    -2.793000000    -0.155000000     6.168000000
C    -2.812000000    -0.884000000     4.971000000
C    -2.461000000    -2.236000000     4.898000000
H    -2.033000000    -2.664000000     5.800000000
C    -2.518000000    -3.004000000     3.830000000
O    -1.899000000    -4.250000000     3.845000000
C    -2.172000000    -5.338000000     2.999000000
C    -1.152000000    -5.909000000     2.319000000
H    -0.186000000    -5.422000000     2.432000000
C    -3.435000000    -5.918000000     2.948000000
H    -4.261000000    -5.509000000     3.525000000
C    -3.612000000    -7.065000000     2.169000000
H    -4.551000000    -7.612000000     2.194000000
C    -2.574000000    -7.586000000     1.361000000
H    -2.679000000    -8.526000000     0.826000000
C    -1.292000000    -7.029000000     1.495000000
O    -0.410000000    -7.454000000     0.586000000
C     0.234000000    -6.486000000    -0.187000000
C     1.656000000    -6.510000000    -0.273000000
H     2.185000000    -7.242000000     0.332000000
C     2.315000000    -5.529000000    -0.985000000
O     3.668000000    -5.496000000    -0.989000000
C     4.358000000    -4.770000000    -1.926000000
C     5.210000000    -3.686000000    -1.614000000
H     5.412000000    -3.396000000    -0.586000000
C     4.230000000    -5.111000000    -3.251000000
H     3.617000000    -5.958000000    -3.550000000
C     4.765000000    -4.381000000    -4.325000000
H     4.560000000    -4.634000000    -5.362000000
C     5.404000000    -3.212000000    -3.941000000
H     5.708000000    -2.494000000    -4.699000000
C     5.692000000    -2.878000000    -2.605000000
O     6.460000000    -1.800000000    -2.255000000
C     6.021000000    -0.509000000    -2.001000000
C     6.655000000     0.365000000    -1.136000000
H     7.508000000     0.040000000    -0.545000000
C     6.161000000     1.599000000    -0.826000000
O     6.753000000     2.316000000     0.186000000
C     6.028000000     3.216000000     0.918000000
C     6.250000000     4.604000000     0.732000000
H     6.939000000     4.967000000    -0.027000000
C     5.412000000     5.531000000     1.415000000
H     5.693000000     6.575000000     1.303000000
C     4.446000000     5.109000000     2.372000000
H     3.788000000     5.871000000     2.782000000
C     4.344000000     3.726000000     2.646000000
C     5.026000000     2.796000000     1.830000000
H     4.803000000     1.732000000     1.852000000
O     4.717000000    -1.076000000     5.854000000
H     4.812000000    -0.162000000     6.122000000
H     4.205000000    -1.037000000     5.046000000
O     6.469000000    -5.358000000     1.461000000
H     6.476000000    -4.837000000     2.264000000
H     7.272000000    -5.108000000     1.005000000
O     8.041000000     1.276000000     6.650000000
H     7.731000000     1.436000000     7.542000000
H     8.032000000     0.323000000     6.561000000
O     0.635000000    -2.690000000     7.559000000
H     0.957000000    -1.789000000     7.527000000
H     0.974000000    -3.093000000     6.759000000
O    -0.432000000     0.193000000     9.020000000
H    -0.166000000    -0.338000000     8.269000000
H     0.189000000     0.921000000     9.031000000
O     1.378000000     2.190000000     8.500000000
H     1.118000000     2.930000000     9.049000000
H     2.260000000     2.411000000     8.203000000
O     6.580000000    -3.817000000     3.567000000
H     6.089000000    -3.066000000     3.899000000
H     7.352000000    -3.867000000     4.131000000
O     5.348000000    -3.676000000     6.327000000
H     4.971000000    -2.809000000     6.175000000
H     5.064000000    -3.908000000     7.211000000
O     1.686000000    -0.369000000     6.942000000
H     1.967000000    -0.202000000     6.043000000
H     1.818000000     0.465000000     7.393000000
O     4.149000000    -6.267000000     2.402000000
H     3.704000000    -5.421000000     2.451000000
H     4.957000000    -6.085000000     1.922000000
O     6.115000000    -1.067000000     1.724000000
H     6.619000000    -0.390000000     2.176000000
H     5.301000000    -1.133000000     2.223000000
O     6.502000000     3.799000000     7.105000000
H     6.884000000     3.081000000     6.600000000
H     7.203000000     4.076000000     7.695000000
O     3.068000000    -3.735000000     2.305000000
H     3.761000000    -3.075000000     2.328000000
H     2.284000000    -3.250000000     2.048000000
O     3.919000000     3.126000000     7.907000000
H     4.207000000     2.610000000     7.154000000
H     4.375000000     3.962000000     7.812000000
O     7.613000000    -2.733000000     7.814000000
H     8.103000000    -3.555000000     7.797000000
H     6.979000000    -2.818000000     7.101000000
O     3.688000000    -0.667000000     9.326000000
H     3.271000000    -1.046000000     8.553000000
H     4.258000000    -1.361000000     9.656000000
O     4.530000000     1.598000000     5.657000000
H     3.935000000     1.031000000     5.167000000
H     4.784000000     2.277000000     5.032000000
O     8.411000000     1.291000000     2.412000000
H     8.679000000     2.099000000     1.975000000
H     8.851000000     1.321000000     3.262000000
O     7.946000000    -3.061000000     0.999000000
H     7.932000000    -3.163000000     1.951000000
H     7.369000000    -2.316000000     0.829000000
