201
-1234.39583
C     0.631000000     1.161000000     5.173000000
H    -0.058000000     0.324000000     5.088000000
C     0.433000000     2.296000000     4.388000000
C     1.375000000     3.381000000     4.414000000
H     1.173000000     4.339000000     3.941000000
C    -0.836000000     2.385000000     3.544000000
O    -1.973000000     1.832000000     4.283000000
H    -0.670000000     1.773000000     2.645000000
O    -1.128000000     3.755000000     3.141000000
C    -1.591000000     3.929000000     1.895000000
C    -0.670000000     4.342000000     0.916000000
H     0.367000000     4.580000000     1.138000000
C    -1.086000000     4.440000000    -0.467000000
O    -0.106000000     4.738000000    -1.376000000
C    -2.436000000     4.131000000    -0.827000000
C    -2.859000000     4.165000000    -2.280000000
H    -3.943000000     4.223000000    -2.406000000
C    -2.519000000     2.897000000    -2.989000000
C    -3.407000000     1.855000000    -3.153000000
H    -4.409000000     1.936000000    -2.740000000
H    -2.480000000     5.017000000    -2.847000000
C    -3.326000000     3.715000000     0.140000000
H    -4.321000000     3.350000000    -0.098000000
C    -2.926000000     3.660000000     1.482000000
C    -3.864000000     3.161000000     2.520000000
H    -4.908000000     3.427000000     2.342000000
H    -3.723000000     3.670000000     3.476000000
C    -3.735000000     1.659000000     2.661000000
C    -4.521000000     0.857000000     1.832000000
H    -5.149000000     1.319000000     1.074000000
C    -2.903000000     1.067000000     3.637000000
C    -2.834000000    -0.298000000     3.753000000
H    -2.069000000    -0.782000000     4.355000000
C    -3.573000000    -1.140000000     2.915000000
O    -3.263000000    -2.481000000     2.879000000
C    -2.428000000    -3.006000000     1.774000000
C    -1.437000000    -3.971000000     2.311000000
C    -0.722000000    -4.752000000     1.415000000
H    -0.957000000    -4.618000000     0.362000000
C    -0.997000000    -4.039000000     3.692000000
H    -1.543000000    -3.522000000     4.477000000
O    -3.246000000    -3.673000000     0.856000000
H    -2.039000000    -2.233000000     1.094000000
C    -4.332000000    -0.519000000     1.911000000
C    -5.200000000    -1.429000000     0.988000000
H    -6.047000000    -0.805000000     0.695000000
H    -5.630000000    -2.234000000     1.588000000
C    -4.486000000    -1.894000000    -0.257000000
C    -4.700000000    -1.232000000    -1.453000000
H    -5.507000000    -0.504000000    -1.486000000
C    -3.533000000    -2.926000000    -0.296000000
C    -2.799000000    -3.199000000    -1.476000000
H    -1.991000000    -3.926000000    -1.503000000
C    -2.988000000    -2.427000000    -2.660000000
O    -2.137000000    -2.585000000    -3.761000000
C    -0.953000000    -1.703000000    -3.843000000
C     0.339000000    -2.470000000    -4.296000000
C     0.706000000    -3.675000000    -3.801000000
H    -0.072000000    -4.230000000    -3.284000000
C     1.274000000    -1.759000000    -5.143000000
H     1.073000000    -0.741000000    -5.467000000
O    -1.236000000    -0.672000000    -4.819000000
H    -0.746000000    -1.318000000    -2.834000000
C    -3.919000000    -1.378000000    -2.608000000
C    -4.094000000    -0.522000000    -3.861000000
H    -5.089000000    -0.108000000    -3.688000000
H    -4.026000000    -1.099000000    -4.786000000
C    -3.090000000     0.630000000    -3.803000000
C    -1.782000000     0.493000000    -4.255000000
C    -0.852000000     1.527000000    -4.149000000
H     0.180000000     1.411000000    -4.471000000
C    -1.270000000     2.712000000    -3.632000000
O    -0.291000000     3.625000000    -3.362000000
C     0.353000000     3.580000000    -2.124000000
H    -0.121000000     2.756000000    -1.571000000
C     1.845000000     3.562000000    -2.110000000
C     2.539000000     3.616000000    -0.842000000
H     2.059000000     3.829000000     0.110000000
C     2.541000000     3.258000000    -3.283000000
H     2.048000000     3.066000000    -4.233000000
C     3.857000000     2.874000000    -3.131000000
O     4.526000000     2.603000000    -4.316000000
C     4.570000000     3.021000000    -1.970000000
H     5.540000000     2.545000000    -1.848000000
C     3.937000000     3.505000000    -0.811000000
O     4.541000000     3.426000000     0.431000000
C     4.389000000     4.337000000     1.452000000
C     4.128000000     3.842000000     2.715000000
H     4.082000000     2.768000000     2.880000000
C     4.727000000     5.703000000     1.362000000
H     5.034000000     6.058000000     0.381000000
C     4.617000000     6.527000000     2.512000000
H     4.932000000     7.564000000     2.420000000
C     4.064000000     6.020000000     3.701000000
H     3.910000000     6.564000000     4.630000000
C     3.916000000     4.651000000     3.819000000
O     3.580000000     4.120000000     4.996000000
C     2.553000000     3.247000000     5.124000000
C     2.758000000     2.075000000     5.831000000
H     3.741000000     1.867000000     6.246000000
C     1.824000000     1.027000000     5.873000000
O     2.216000000    -0.171000000     6.456000000
C     1.333000000    -1.253000000     6.679000000
C     1.257000000    -2.356000000     5.801000000
H     1.830000000    -2.241000000     4.885000000
C     0.609000000    -1.313000000     7.859000000
H     0.645000000    -0.446000000     8.513000000
C    -0.177000000    -2.408000000     8.149000000
H    -0.757000000    -2.653000000     9.034000000
C    -0.205000000    -3.449000000     7.279000000
H    -0.785000000    -4.319000000     7.577000000
C     0.542000000    -3.467000000     6.102000000
O     0.616000000    -4.596000000     5.343000000
C     0.173000000    -4.660000000     4.029000000
C     0.878000000    -5.409000000     3.043000000
H     1.821000000    -5.919000000     3.223000000
C     0.412000000    -5.430000000     1.742000000
O     1.113000000    -6.078000000     0.801000000
C     0.753000000    -6.384000000    -0.505000000
C     1.515000000    -5.801000000    -1.458000000
H     2.288000000    -5.094000000    -1.167000000
C    -0.161000000    -7.307000000    -0.903000000
H    -0.816000000    -7.736000000    -0.149000000
C    -0.487000000    -7.641000000    -2.252000000
H    -1.344000000    -8.191000000    -2.633000000
C     0.349000000    -7.107000000    -3.222000000
H     0.075000000    -7.399000000    -4.232000000
C     1.373000000    -6.185000000    -2.847000000
O     2.113000000    -5.610000000    -3.771000000
C     1.929000000    -4.288000000    -4.126000000
C     2.788000000    -3.608000000    -4.974000000
H     3.730000000    -4.096000000    -5.212000000
C     2.521000000    -2.302000000    -5.482000000
O     3.310000000    -1.648000000    -6.395000000
C     3.473000000    -0.277000000    -6.324000000
C     3.158000000     0.458000000    -7.501000000
H     2.881000000    -0.099000000    -8.392000000
C     3.367000000     1.793000000    -7.571000000
H     3.156000000     2.344000000    -8.484000000
C     3.723000000     2.520000000    -6.479000000
H     3.836000000     3.601000000    -6.461000000
C     3.988000000     1.844000000    -5.302000000
C     4.018000000     0.434000000    -5.243000000
H     4.299000000     0.011000000    -4.282000000
O     7.888000000    -6.902000000    -1.338000000
H     7.125000000    -6.511000000    -1.763000000
H     7.537000000    -7.655000000    -0.862000000
O     4.460000000    -3.288000000     4.008000000
H     3.877000000    -3.355000000     3.251000000
H     5.247000000    -2.864000000     3.667000000
O     6.806000000    -2.400000000     3.173000000
H     6.729000000    -2.951000000     2.394000000
H     7.610000000    -1.899000000     3.032000000
O     6.328000000    -1.610000000    -0.887000000
H     5.478000000    -2.048000000    -0.841000000
H     6.241000000    -0.856000000    -0.305000000
O     6.297000000    -3.147000000     6.066000000
H     5.654000000    -3.044000000     5.365000000
H     6.715000000    -3.989000000     5.885000000
O     3.620000000    -8.089000000     3.005000000
H     3.900000000    -7.681000000     3.825000000
H     3.859000000    -7.455000000     2.329000000
O     6.978000000    -5.913000000     2.580000000
H     7.790000000    -5.743000000     2.102000000
H     6.301000000    -5.471000000     2.068000000
O     1.136000000    -9.032000000     2.387000000
H     1.199000000    -9.284000000     1.466000000
H     1.979000000    -8.624000000     2.582000000
O     4.192000000    -6.170000000     4.768000000
H     4.013000000    -5.272000000     5.047000000
H     5.145000000    -6.209000000     4.682000000
O     9.030000000    -1.559000000    -1.668000000
H     9.092000000    -1.766000000    -2.600000000
H     8.090000000    -1.526000000    -1.491000000
O     5.724000000     0.523000000     0.695000000
H     4.952000000     1.089000000     0.672000000
H     6.031000000     0.575000000     1.600000000
O     3.043000000     0.619000000     2.661000000
H     2.625000000     1.099000000     1.946000000
H     2.733000000    -0.281000000     2.559000000
O     5.495000000    -6.907000000    -3.578000000
H     5.179000000    -6.313000000    -2.898000000
H     5.021000000    -7.724000000    -3.422000000
O     6.024000000     1.055000000     3.397000000
H     6.023000000     1.097000000     4.353000000
H     5.108000000     0.902000000     3.163000000
O     7.864000000     1.075000000    -1.270000000
H     8.071000000     0.220000000    -1.649000000
H     7.230000000     0.884000000    -0.579000000
O     6.166000000    -3.773000000     1.045000000
H     5.224000000    -3.682000000     1.191000000
H     6.350000000    -3.194000000     0.306000000
O     8.057000000    -3.234000000    -4.483000000
H     7.262000000    -3.746000000    -4.334000000
H     8.008000000    -2.978000000    -5.404000000
O     4.375000000    -6.299000000     1.036000000
H     4.648000000    -6.498000000     0.141000000
H     3.900000000    -5.472000000     0.964000000
O     5.494000000    -5.131000000    -1.582000000
H     4.638000000    -4.703000000    -1.603000000
H     6.065000000    -4.502000000    -1.139000000
