201
-1274.96041
C     0.048000000     1.993000000     4.205000000
H    -0.859000000     1.397000000     4.266000000
C     0.110000000     2.856000000     3.133000000
C     1.302000000     3.519000000     2.937000000
H     1.441000000     4.203000000     2.104000000
C    -1.056000000     3.098000000     2.151000000
O    -2.364000000     2.804000000     2.763000000
H    -1.021000000     2.300000000     1.394000000
O    -0.956000000     4.326000000     1.491000000
C    -1.229000000     4.421000000     0.093000000
C    -0.232000000     4.589000000    -0.793000000
H     0.755000000     4.841000000    -0.413000000
C    -0.355000000     4.388000000    -2.144000000
O     0.706000000     4.443000000    -2.951000000
C    -1.599000000     3.955000000    -2.724000000
C    -1.754000000     3.514000000    -4.137000000
H    -2.740000000     3.741000000    -4.548000000
C    -1.301000000     2.134000000    -4.347000000
C    -2.283000000     1.068000000    -4.404000000
H    -3.312000000     1.381000000    -4.246000000
H    -1.056000000     4.163000000    -4.669000000
C    -2.642000000     3.832000000    -1.828000000
H    -3.615000000     3.551000000    -2.221000000
C    -2.477000000     4.046000000    -0.417000000
C    -3.703000000     3.876000000     0.443000000
H    -4.596000000     4.105000000    -0.142000000
H    -3.628000000     4.617000000     1.241000000
C    -3.966000000     2.487000000     0.963000000
C    -4.797000000     1.543000000     0.229000000
H    -5.295000000     1.848000000    -0.688000000
C    -3.298000000     2.059000000     2.125000000
C    -3.475000000     0.809000000     2.623000000
H    -2.885000000     0.435000000     3.456000000
C    -4.323000000    -0.107000000     1.982000000
O    -4.464000000    -1.403000000     2.482000000
C    -3.472000000    -2.353000000     1.924000000
C    -2.810000000    -3.252000000     2.906000000
C    -2.148000000    -4.442000000     2.492000000
H    -2.148000000    -4.748000000     1.449000000
C    -2.643000000    -2.843000000     4.195000000
H    -2.959000000    -1.854000000     4.516000000
O    -3.932000000    -3.053000000     0.826000000
H    -2.649000000    -1.715000000     1.571000000
C    -5.010000000     0.284000000     0.771000000
C    -5.657000000    -0.803000000    -0.131000000
H    -6.347000000    -0.396000000    -0.873000000
H    -6.277000000    -1.457000000     0.486000000
C    -4.602000000    -1.566000000    -0.918000000
C    -4.333000000    -1.191000000    -2.294000000
H    -4.916000000    -0.364000000    -2.690000000
C    -3.821000000    -2.604000000    -0.486000000
C    -2.849000000    -3.269000000    -1.246000000
H    -2.297000000    -4.014000000    -0.678000000
C    -2.565000000    -2.842000000    -2.539000000
O    -1.536000000    -3.475000000    -3.169000000
C    -0.303000000    -2.654000000    -3.130000000
C     0.830000000    -3.485000000    -2.812000000
C     0.706000000    -4.700000000    -2.089000000
H    -0.204000000    -5.005000000    -1.579000000
C     2.133000000    -2.955000000    -3.043000000
H     2.195000000    -2.018000000    -3.591000000
O    -0.145000000    -1.889000000    -4.367000000
H    -0.355000000    -1.922000000    -2.311000000
C    -3.394000000    -1.900000000    -3.104000000
C    -3.068000000    -1.343000000    -4.457000000
H    -3.948000000    -0.790000000    -4.790000000
H    -2.757000000    -2.102000000    -5.178000000
C    -1.973000000    -0.277000000    -4.374000000
C    -0.577000000    -0.585000000    -4.500000000
C     0.411000000     0.395000000    -4.533000000
H     1.442000000     0.053000000    -4.560000000
C     0.052000000     1.725000000    -4.406000000
O     1.067000000     2.603000000    -4.315000000
C     1.322000000     3.157000000    -3.085000000
H     0.969000000     2.447000000    -2.322000000
C     2.777000000     3.351000000    -2.781000000
C     3.266000000     4.308000000    -1.873000000
H     2.630000000     5.107000000    -1.503000000
C     3.696000000     2.422000000    -3.295000000
H     3.303000000     1.736000000    -4.040000000
C     5.032000000     2.456000000    -2.924000000
O     5.923000000     1.506000000    -3.318000000
C     5.483000000     3.455000000    -2.095000000
H     6.541000000     3.553000000    -1.865000000
C     4.573000000     4.366000000    -1.525000000
O     5.041000000     5.421000000    -0.746000000
C     4.653000000     5.580000000     0.550000000
C     4.370000000     4.495000000     1.411000000
H     4.344000000     3.469000000     1.053000000
C     4.598000000     6.949000000     1.024000000
H     4.911000000     7.729000000     0.335000000
C     4.193000000     7.161000000     2.382000000
H     4.068000000     8.164000000     2.780000000
C     3.879000000     6.015000000     3.223000000
H     3.532000000     6.093000000     4.251000000
C     4.005000000     4.733000000     2.714000000
O     3.717000000     3.702000000     3.522000000
C     2.391000000     3.303000000     3.843000000
C     2.227000000     2.398000000     4.922000000
H     3.077000000     2.170000000     5.559000000
C     1.081000000     1.760000000     5.059000000
O     1.049000000     0.821000000     6.035000000
C    -0.121000000     0.307000000     6.526000000
C    -0.418000000    -1.051000000     6.225000000
H     0.329000000    -1.628000000     5.687000000
C    -1.114000000     1.059000000     7.166000000
H    -0.938000000     2.116000000     7.351000000
C    -2.337000000     0.478000000     7.514000000
H    -3.122000000     1.008000000     8.047000000
C    -2.530000000    -0.922000000     7.299000000
H    -3.447000000    -1.406000000     7.622000000
C    -1.584000000    -1.684000000     6.657000000
O    -1.729000000    -3.105000000     6.462000000
C    -1.941000000    -3.582000000     5.165000000
C    -1.356000000    -4.791000000     4.764000000
H    -0.810000000    -5.393000000     5.485000000
C    -1.462000000    -5.224000000     3.413000000
O    -0.838000000    -6.397000000     3.030000000
C    -0.594000000    -6.767000000     1.735000000
C     0.389000000    -6.190000000     0.914000000
H     0.899000000    -5.270000000     1.187000000
C    -1.199000000    -7.947000000     1.376000000
H    -1.909000000    -8.424000000     2.047000000
C    -0.900000000    -8.593000000     0.184000000
H    -1.392000000    -9.499000000    -0.161000000
C     0.095000000    -8.080000000    -0.649000000
H     0.265000000    -8.602000000    -1.588000000
C     0.743000000    -6.908000000    -0.261000000
O     1.857000000    -6.554000000    -1.022000000
C     1.884000000    -5.380000000    -1.709000000
C     3.154000000    -4.926000000    -2.077000000
H     4.027000000    -5.532000000    -1.852000000
C     3.272000000    -3.629000000    -2.634000000
O     4.600000000    -3.146000000    -2.842000000
C     4.760000000    -2.017000000    -3.678000000
C     5.003000000    -2.234000000    -5.045000000
H     4.904000000    -3.218000000    -5.495000000
C     5.456000000    -1.184000000    -5.744000000
H     5.725000000    -1.350000000    -6.784000000
C     5.711000000     0.091000000    -5.201000000
H     6.184000000     0.815000000    -5.859000000
C     5.497000000     0.284000000    -3.859000000
C     5.089000000    -0.781000000    -3.092000000
H     4.971000000    -0.638000000    -2.021000000
O     6.214000000    -0.422000000     0.533000000
H     5.960000000     0.309000000     1.095000000
H     5.403000000    -0.683000000     0.097000000
O     1.915000000    -4.688000000     6.151000000
H     1.789000000    -3.952000000     5.552000000
H     2.539000000    -5.258000000     5.701000000
O     2.877000000    -2.640000000     7.854000000
H     2.464000000    -3.337000000     7.344000000
H     3.488000000    -3.096000000     8.432000000
O     5.050000000    -4.889000000     4.791000000
H     5.878000000    -4.889000000     4.309000000
H     4.449000000    -4.394000000     4.235000000
O     4.928000000    -5.105000000     0.570000000
H     4.365000000    -4.727000000     1.245000000
H     4.674000000    -6.027000000     0.536000000
O     2.139000000    -6.548000000     3.520000000
H     1.577000000    -5.813000000     3.765000000
H     2.751000000    -6.180000000     2.882000000
O     3.420000000    -1.268000000     5.727000000
H     3.422000000    -1.632000000     6.613000000
H     2.901000000    -1.889000000     5.215000000
O     1.639000000    -9.042000000     2.553000000
H     1.712000000    -8.229000000     3.052000000
H     0.804000000    -9.419000000     2.830000000
O     4.731000000    -8.317000000     4.821000000
H     5.342000000    -7.956000000     5.463000000
H     4.068000000    -7.634000000     4.711000000
O    -0.452000000    -5.418000000     8.328000000
H     0.196000000    -5.587000000     7.645000000
H    -0.329000000    -4.495000000     8.552000000
O     5.185000000     1.486000000     2.568000000
H     6.003000000     1.981000000     2.503000000
H     4.633000000     2.012000000     3.147000000
O     7.124000000    -5.089000000    -1.736000000
H     7.225000000    -5.865000000    -1.185000000
H     6.794000000    -4.415000000    -1.143000000
O     6.345000000    -4.349000000     7.097000000
H     6.427000000    -5.270000000     7.346000000
H     5.857000000    -4.367000000     6.273000000
O     4.090000000    -7.551000000     1.003000000
H     3.279000000    -7.941000000     1.328000000
H     4.785000000    -8.052000000     1.431000000
O     7.208000000    -4.505000000     3.216000000
H     7.222000000    -3.647000000     3.641000000
H     7.230000000    -4.309000000     2.280000000
O     6.831000000    -3.221000000     0.411000000
H     5.968000000    -3.571000000     0.633000000
H     6.736000000    -2.273000000     0.505000000
O     7.330000000    -7.022000000     0.603000000
H     6.779000000    -6.277000000     0.844000000
H     6.997000000    -7.747000000     1.133000000
O     5.290000000    -1.172000000     3.656000000
H     4.778000000    -1.396000000     4.434000000
H     4.974000000    -0.305000000     3.403000000
O     7.680000000    -2.049000000     4.297000000
H     7.972000000    -1.362000000     4.895000000
H     6.957000000    -1.652000000     3.811000000
