201
-1264.84088
C    -1.357000000     0.090000000     4.681000000
H    -2.260000000    -0.453000000     4.414000000
C    -1.133000000     1.389000000     4.219000000
C     0.020000000     2.079000000     4.540000000
H     0.219000000     3.065000000     4.128000000
C    -1.975000000     2.025000000     3.115000000
O    -3.407000000     1.691000000     3.177000000
H    -1.628000000     1.544000000     2.188000000
O    -1.845000000     3.400000000     2.848000000
C    -1.639000000     3.878000000     1.588000000
C    -0.386000000     4.265000000     1.211000000
H     0.386000000     4.271000000     1.976000000
C    -0.072000000     4.545000000    -0.128000000
O     1.315000000     4.812000000    -0.364000000
C    -1.076000000     4.613000000    -1.077000000
C    -0.679000000     4.894000000    -2.514000000
H    -1.467000000     5.385000000    -3.089000000
C    -0.168000000     3.676000000    -3.278000000
C    -1.049000000     2.934000000    -4.072000000
H    -2.061000000     3.288000000    -4.246000000
H     0.111000000     5.635000000    -2.375000000
C    -2.378000000     4.344000000    -0.683000000
H    -3.123000000     4.543000000    -1.448000000
C    -2.696000000     3.982000000     0.661000000
C    -4.140000000     3.610000000     1.018000000
H    -4.939000000     4.037000000     0.409000000
H    -4.399000000     3.885000000     2.042000000
C    -4.258000000     2.132000000     0.902000000
C    -4.745000000     1.561000000    -0.326000000
H    -5.021000000     2.228000000    -1.139000000
C    -3.940000000     1.271000000     1.999000000
C    -4.185000000    -0.089000000     1.851000000
H    -3.913000000    -0.603000000     2.769000000
C    -4.682000000    -0.607000000     0.689000000
O    -4.779000000    -2.025000000     0.495000000
C    -3.615000000    -2.641000000    -0.113000000
C    -3.124000000    -3.787000000     0.682000000
C    -2.386000000    -4.800000000     0.016000000
H    -2.167000000    -4.687000000    -1.043000000
C    -3.389000000    -3.921000000     2.065000000
H    -3.886000000    -3.094000000     2.564000000
O    -4.020000000    -2.930000000    -1.443000000
H    -2.725000000    -1.997000000    -0.174000000
C    -4.911000000     0.176000000    -0.443000000
C    -5.317000000    -0.429000000    -1.801000000
H    -5.914000000     0.301000000    -2.352000000
H    -5.957000000    -1.303000000    -1.665000000
C    -4.115000000    -0.807000000    -2.582000000
C    -3.583000000     0.134000000    -3.472000000
H    -4.105000000     1.071000000    -3.652000000
C    -3.499000000    -2.028000000    -2.346000000
C    -2.207000000    -2.299000000    -3.001000000
H    -1.589000000    -3.159000000    -2.759000000
C    -1.702000000    -1.350000000    -3.908000000
O    -0.531000000    -1.689000000    -4.562000000
C     0.650000000    -1.077000000    -4.065000000
C     1.842000000    -2.003000000    -3.936000000
C     1.571000000    -3.262000000    -3.381000000
H     0.566000000    -3.593000000    -3.134000000
C     3.158000000    -1.555000000    -4.027000000
H     3.324000000    -0.515000000    -4.296000000
O     0.983000000    -0.015000000    -4.914000000
H     0.461000000    -0.722000000    -3.042000000
C    -2.385000000    -0.166000000    -4.149000000
C    -1.848000000     0.805000000    -5.260000000
H    -2.654000000     1.434000000    -5.644000000
H    -1.444000000     0.317000000    -6.149000000
C    -0.735000000     1.689000000    -4.652000000
C     0.605000000     1.242000000    -4.431000000
C     1.572000000     2.020000000    -3.778000000
H     2.578000000     1.646000000    -3.606000000
C     1.182000000     3.253000000    -3.196000000
O     2.144000000     3.852000000    -2.426000000
C     2.019000000     3.689000000    -0.971000000
H     1.445000000     2.771000000    -0.774000000
C     3.425000000     3.489000000    -0.371000000
C     3.712000000     4.000000000     0.901000000
H     3.008000000     4.643000000     1.422000000
C     4.315000000     2.568000000    -0.909000000
H     4.010000000     2.092000000    -1.838000000
C     5.558000000     2.306000000    -0.282000000
O     6.400000000     1.316000000    -0.714000000
C     5.926000000     2.921000000     0.928000000
H     6.760000000     2.458000000     1.450000000
C     4.992000000     3.773000000     1.536000000
O     5.170000000     4.221000000     2.850000000
C     4.172000000     4.354000000     3.764000000
C     3.442000000     3.249000000     4.200000000
H     3.721000000     2.260000000     3.845000000
C     3.893000000     5.652000000     4.282000000
H     4.495000000     6.465000000     3.885000000
C     2.969000000     5.830000000     5.346000000
H     2.835000000     6.713000000     5.965000000
C     2.376000000     4.669000000     5.873000000
H     1.751000000     4.819000000     6.750000000
C     2.603000000     3.410000000     5.334000000
O     2.010000000     2.303000000     5.946000000
C     1.006000000     1.507000000     5.453000000
C     0.691000000     0.251000000     5.986000000
H     1.323000000    -0.209000000     6.742000000
C    -0.450000000    -0.458000000     5.623000000
O    -0.730000000    -1.647000000     6.276000000
C    -1.820000000    -2.380000000     6.079000000
C    -1.750000000    -3.450000000     5.189000000
H    -0.851000000    -3.789000000     4.682000000
C    -3.016000000    -1.942000000     6.656000000
H    -3.177000000    -1.001000000     7.175000000
C    -4.195000000    -2.617000000     6.364000000
H    -5.171000000    -2.209000000     6.613000000
C    -4.140000000    -3.599000000     5.370000000
H    -5.128000000    -3.969000000     5.109000000
C    -2.936000000    -4.100000000     4.893000000
O    -2.998000000    -5.179000000     4.081000000
C    -2.977000000    -5.111000000     2.675000000
C    -2.359000000    -6.149000000     1.988000000
H    -2.111000000    -7.130000000     2.386000000
C    -2.027000000    -5.980000000     0.637000000
O    -1.323000000    -6.957000000     0.005000000
C    -0.735000000    -6.900000000    -1.213000000
C     0.523000000    -6.249000000    -1.228000000
H     1.058000000    -5.891000000    -0.352000000
C    -1.383000000    -7.323000000    -2.364000000
H    -2.383000000    -7.747000000    -2.319000000
C    -0.728000000    -7.214000000    -3.588000000
H    -1.116000000    -7.590000000    -4.531000000
C     0.560000000    -6.630000000    -3.564000000
H     1.140000000    -6.492000000    -4.473000000
C     1.124000000    -6.044000000    -2.466000000
O     2.323000000    -5.355000000    -2.538000000
C     2.601000000    -4.102000000    -3.025000000
C     3.931000000    -3.681000000    -3.320000000
H     4.723000000    -4.407000000    -3.155000000
C     4.250000000    -2.386000000    -3.769000000
O     5.508000000    -1.973000000    -4.045000000
C     5.945000000    -0.674000000    -3.695000000
C     6.669000000     0.091000000    -4.610000000
H     6.716000000    -0.094000000    -5.680000000
C     7.180000000     1.345000000    -4.222000000
H     7.606000000     2.020000000    -4.961000000
C     6.996000000     1.740000000    -2.868000000
H     7.499000000     2.668000000    -2.610000000
C     6.404000000     0.887000000    -1.960000000
C     5.854000000    -0.328000000    -2.308000000
H     5.358000000    -0.981000000    -1.595000000
O     3.504000000    -0.258000000     4.021000000
H     2.889000000    -0.765000000     4.551000000
H     4.367000000    -0.497000000     4.361000000
O     3.835000000    -0.025000000     1.452000000
H     3.066000000    -0.238000000     0.923000000
H     3.528000000    -0.090000000     2.357000000
O     7.771000000    -2.726000000     0.016000000
H     8.207000000    -3.166000000     0.745000000
H     6.953000000    -2.397000000     0.389000000
O     2.862000000    -6.134000000     6.775000000
H     2.206000000    -5.953000000     6.101000000
H     3.672000000    -5.763000000     6.426000000
O     4.230000000    -6.005000000    -0.697000000
H     3.371000000    -6.410000000    -0.815000000
H     4.043000000    -5.167000000    -0.274000000
O     6.341000000    -7.487000000    -0.128000000
H     5.636000000    -6.891000000    -0.380000000
H     6.693000000    -7.807000000    -0.959000000
O     5.494000000    -7.605000000     2.485000000
H     5.843000000    -7.726000000     1.602000000
H     5.062000000    -8.435000000     2.687000000
O     0.024000000    -8.729000000     4.227000000
H     0.708000000    -8.302000000     3.711000000
H     0.433000000    -8.893000000     5.077000000
O     2.381000000    -7.309000000     2.954000000
H     2.716000000    -7.990000000     2.371000000
H     2.629000000    -6.487000000     2.530000000
O     6.464000000    -0.630000000     4.257000000
H     7.083000000    -0.121000000     3.734000000
H     6.284000000    -1.407000000     3.728000000
O     5.119000000    -4.961000000     2.889000000
H     4.443000000    -4.641000000     2.292000000
H     5.159000000    -5.903000000     2.723000000
O     3.807000000    -2.503000000     6.970000000
H     4.521000000    -2.963000000     6.530000000
H     3.064000000    -2.587000000     6.372000000
O     5.069000000    -4.964000000     5.889000000
H     5.935000000    -5.081000000     6.278000000
H     5.210000000    -5.084000000     4.950000000
O     2.340000000    -9.252000000     0.685000000
H     3.124000000    -9.678000000     1.031000000
H     2.366000000    -9.432000000    -0.255000000
O    -0.131000000    -9.429000000     1.718000000
H    -0.111000000    -9.095000000     2.614000000
H     0.732000000    -9.215000000     1.363000000
O     5.749000000    -2.084000000     1.439000000
H     5.052000000    -2.738000000     1.483000000
H     5.288000000    -1.246000000     1.394000000
O     0.953000000    -5.242000000     4.752000000
H     0.309000000    -5.911000000     4.523000000
H     1.410000000    -5.057000000     3.931000000
O     7.707000000    -4.308000000     3.480000000
H     6.774000000    -4.380000000     3.282000000
H     7.748000000    -3.711000000     4.227000000
O     2.453000000    -2.878000000     4.489000000
H     1.499000000    -2.919000000     4.422000000
H     2.765000000    -3.564000000     3.898000000
