201
-1259.22166
C    -1.888000000     0.216000000     4.681000000
H    -2.876000000    -0.226000000     4.580000000
C    -1.499000000     1.346000000     3.926000000
C    -0.209000000     1.829000000     4.200000000
H     0.096000000     2.726000000     3.666000000
C    -2.270000000     1.927000000     2.796000000
O    -3.685000000     1.523000000     2.871000000
H    -1.813000000     1.474000000     1.904000000
O    -2.152000000     3.416000000     2.755000000
C    -1.943000000     3.891000000     1.425000000
C    -0.642000000     4.410000000     1.183000000
H     0.097000000     4.535000000     1.971000000
C    -0.299000000     4.596000000    -0.148000000
O     1.027000000     4.844000000    -0.478000000
C    -1.264000000     4.611000000    -1.149000000
C    -0.913000000     4.791000000    -2.626000000
H    -1.888000000     4.955000000    -3.089000000
C    -0.299000000     3.556000000    -3.230000000
C    -1.172000000     2.720000000    -3.971000000
H    -2.218000000     2.972000000    -4.125000000
H    -0.348000000     5.687000000    -2.894000000
C    -2.600000000     4.274000000    -0.870000000
H    -3.352000000     4.130000000    -1.642000000
C    -2.916000000     3.806000000     0.379000000
C    -4.359000000     3.358000000     0.686000000
H    -5.011000000     3.876000000    -0.021000000
H    -4.581000000     3.549000000     1.738000000
C    -4.440000000     1.824000000     0.588000000
C    -4.838000000     1.246000000    -0.631000000
H    -4.952000000     1.907000000    -1.487000000
C    -4.215000000     0.987000000     1.682000000
C    -4.284000000    -0.330000000     1.554000000
H    -4.065000000    -0.921000000     2.439000000
C    -4.661000000    -0.981000000     0.419000000
O    -4.615000000    -2.292000000     0.265000000
C    -3.313000000    -2.812000000    -0.170000000
C    -2.773000000    -3.929000000     0.770000000
C    -2.065000000    -5.006000000     0.208000000
H    -1.750000000    -4.996000000    -0.833000000
C    -3.038000000    -3.919000000     2.141000000
H    -3.695000000    -3.138000000     2.516000000
O    -3.461000000    -3.234000000    -1.553000000
H    -2.597000000    -1.977000000    -0.139000000
C    -4.867000000    -0.186000000    -0.709000000
C    -5.085000000    -0.862000000    -2.069000000
H    -5.745000000    -0.251000000    -2.689000000
H    -5.655000000    -1.784000000    -1.932000000
C    -3.775000000    -1.141000000    -2.841000000
C    -3.295000000    -0.333000000    -3.830000000
H    -3.877000000     0.539000000    -4.118000000
C    -3.044000000    -2.282000000    -2.474000000
C    -1.872000000    -2.577000000    -3.121000000
H    -1.393000000    -3.519000000    -2.863000000
C    -1.368000000    -1.742000000    -4.119000000
O    -0.090000000    -2.006000000    -4.527000000
C     0.838000000    -1.182000000    -3.938000000
C     2.086000000    -1.965000000    -3.631000000
C     2.009000000    -3.186000000    -3.004000000
H     1.035000000    -3.611000000    -2.774000000
C     3.338000000    -1.407000000    -3.698000000
H     3.469000000    -0.451000000    -4.198000000
O     1.111000000    -0.047000000    -4.786000000
H     0.492000000    -0.723000000    -3.000000000
C    -2.107000000    -0.547000000    -4.421000000
C    -1.587000000     0.503000000    -5.285000000
H    -2.508000000     0.844000000    -5.761000000
H    -1.059000000     0.065000000    -6.135000000
C    -0.677000000     1.543000000    -4.569000000
C     0.625000000     1.212000000    -4.394000000
C     1.535000000     2.014000000    -3.786000000
H     2.585000000     1.748000000    -3.875000000
C     1.048000000     3.230000000    -3.246000000
O     1.918000000     4.033000000    -2.562000000
C     1.846000000     3.833000000    -1.108000000
H     1.467000000     2.825000000    -0.883000000
C     3.224000000     3.726000000    -0.450000000
C     3.416000000     3.985000000     0.948000000
H     2.601000000     4.416000000     1.524000000
C     4.283000000     3.116000000    -1.108000000
H     4.129000000     2.742000000    -2.117000000
C     5.585000000     3.146000000    -0.612000000
O     6.677000000     2.690000000    -1.297000000
C     5.825000000     3.663000000     0.651000000
H     6.840000000     3.790000000     1.018000000
C     4.701000000     4.042000000     1.460000000
O     4.858000000     4.460000000     2.777000000
C     3.913000000     4.404000000     3.828000000
C     3.304000000     3.189000000     4.235000000
H     3.635000000     2.339000000     3.643000000
C     3.434000000     5.644000000     4.312000000
H     3.999000000     6.503000000     3.958000000
C     2.364000000     5.645000000     5.224000000
H     1.956000000     6.569000000     5.626000000
C     1.800000000     4.513000000     5.629000000
H     1.125000000     4.564000000     6.479000000
C     2.323000000     3.236000000     5.189000000
O     1.787000000     2.040000000     5.595000000
C     0.537000000     1.456000000     5.319000000
C     0.194000000     0.366000000     6.055000000
H     0.719000000    -0.007000000     6.930000000
C    -1.025000000    -0.216000000     5.692000000
O    -1.477000000    -1.211000000     6.598000000
C    -2.397000000    -2.197000000     6.362000000
C    -2.194000000    -3.187000000     5.416000000
H    -1.209000000    -3.176000000     4.957000000
C    -3.549000000    -2.279000000     7.181000000
H    -3.680000000    -1.557000000     7.983000000
C    -4.489000000    -3.296000000     6.984000000
H    -5.242000000    -3.447000000     7.753000000
C    -4.280000000    -4.294000000     5.993000000
H    -4.940000000    -5.157000000     5.961000000
C    -3.147000000    -4.193000000     5.162000000
O    -2.897000000    -5.197000000     4.222000000
C    -2.591000000    -4.974000000     2.910000000
C    -1.907000000    -6.043000000     2.306000000
H    -1.613000000    -6.844000000     2.980000000
C    -1.547000000    -6.023000000     0.948000000
O    -0.752000000    -7.008000000     0.458000000
C    -0.092000000    -6.840000000    -0.785000000
C     1.204000000    -6.249000000    -0.792000000
H     1.694000000    -5.965000000     0.136000000
C    -0.731000000    -7.167000000    -2.018000000
H    -1.784000000    -7.432000000    -2.053000000
C    -0.040000000    -6.959000000    -3.186000000
H    -0.572000000    -7.185000000    -4.106000000
C     1.211000000    -6.351000000    -3.183000000
H     1.825000000    -6.242000000    -4.073000000
C     1.800000000    -5.914000000    -1.971000000
O     2.956000000    -5.112000000    -1.943000000
C     3.111000000    -3.945000000    -2.646000000
C     4.373000000    -3.359000000    -2.843000000
H     5.265000000    -3.894000000    -2.524000000
C     4.459000000    -2.010000000    -3.221000000
O     5.753000000    -1.451000000    -3.421000000
C     6.067000000    -0.129000000    -3.478000000
C     6.398000000     0.436000000    -4.685000000
H     6.168000000    -0.140000000    -5.578000000
C     6.906000000     1.629000000    -4.857000000
H     7.067000000     1.964000000    -5.878000000
C     6.978000000     2.403000000    -3.679000000
H     7.307000000     3.424000000    -3.853000000
C     6.671000000     1.897000000    -2.398000000
C     6.216000000     0.588000000    -2.273000000
H     5.819000000     0.187000000    -1.344000000
O     3.318000000    -0.139000000     4.374000000
H     3.208000000    -0.848000000     5.007000000
H     3.167000000     0.659000000     4.881000000
O     3.639000000     0.505000000     1.821000000
H     2.762000000     0.786000000     1.561000000
H     3.511000000     0.072000000     2.665000000
O     6.971000000    -3.370000000    -0.288000000
H     6.492000000    -4.149000000    -0.007000000
H     6.851000000    -2.744000000     0.426000000
O     5.174000000    -5.558000000     6.235000000
H     5.274000000    -5.847000000     5.328000000
H     5.357000000    -4.619000000     6.208000000
O     4.959000000    -5.209000000    -0.017000000
H     4.313000000    -5.150000000    -0.721000000
H     4.650000000    -4.588000000     0.643000000
O     5.172000000    -7.856000000    -1.459000000
H     5.543000000    -7.101000000    -1.003000000
H     5.762000000    -8.579000000    -1.247000000
O     4.207000000    -8.085000000     3.187000000
H     3.522000000    -7.858000000     2.558000000
H     4.626000000    -8.861000000     2.815000000
O     1.916000000    -6.753000000     2.539000000
H     1.247000000    -6.819000000     3.219000000
H     1.976000000    -5.816000000     2.351000000
O     5.968000000    -1.373000000     4.235000000
H     6.569000000    -0.843000000     3.711000000
H     5.097000000    -1.079000000     3.969000000
O     0.194000000    -7.016000000     5.075000000
H     1.001000000    -7.435000000     5.374000000
H    -0.197000000    -6.655000000     5.870000000
O     4.634000000    -5.402000000     3.173000000
H     3.945000000    -4.820000000     2.851000000
H     4.342000000    -6.279000000     2.924000000
O     5.468000000    -2.611000000     6.473000000
H     5.753000000    -2.068000000     5.738000000
H     4.609000000    -2.261000000     6.710000000
O     6.729000000    -3.822000000     3.207000000
H     5.912000000    -4.309000000     3.314000000
H     6.520000000    -2.936000000     3.500000000
O     0.970000000    -9.339000000     1.454000000
H     0.779000000    -8.405000000     1.376000000
H     1.501000000    -9.541000000     0.684000000
O     5.644000000    -0.928000000     1.041000000
H     5.087000000    -1.703000000     0.966000000
H     5.041000000    -0.221000000     1.271000000
O     1.564000000    -4.256000000     5.014000000
H     1.844000000    -4.213000000     4.100000000
H     1.683000000    -5.174000000     5.258000000
O     7.870000000     0.008000000     2.448000000
H     7.125000000     0.148000000     1.864000000
H     8.507000000    -0.467000000     1.915000000
O     6.832000000    -6.951000000     1.016000000
H     6.363000000    -6.150000000     1.250000000
H     7.726000000    -6.661000000     0.835000000
O     2.603000000    -2.124000000     6.174000000
H     1.903000000    -2.220000000     6.820000000
H     2.467000000    -2.849000000     5.564000000
