201
-1253.26225
C    -1.108000000     2.503000000     4.505000000
H    -1.823000000     1.727000000     4.242000000
C    -0.864000000     3.383000000     3.499000000
C     0.257000000     4.196000000     3.665000000
H     0.559000000     4.798000000     2.811000000
C    -1.687000000     3.363000000     2.188000000
O    -3.116000000     3.174000000     2.443000000
H    -1.319000000     2.489000000     1.631000000
O    -1.523000000     4.569000000     1.487000000
C    -1.311000000     4.507000000     0.133000000
C     0.022000000     4.470000000    -0.301000000
H     0.786000000     4.558000000     0.468000000
C     0.301000000     4.406000000    -1.634000000
O     1.611000000     4.333000000    -1.923000000
C    -0.758000000     4.249000000    -2.515000000
C    -0.482000000     3.936000000    -3.991000000
H    -1.180000000     4.347000000    -4.723000000
C    -0.213000000     2.378000000    -4.215000000
C    -1.251000000     1.534000000    -4.498000000
H    -2.244000000     1.958000000    -4.619000000
H     0.394000000     4.497000000    -4.323000000
C    -2.070000000     4.151000000    -2.062000000
H    -2.875000000     3.845000000    -2.725000000
C    -2.418000000     4.350000000    -0.716000000
C    -3.805000000     4.013000000    -0.220000000
H    -4.518000000     4.268000000    -1.006000000
H    -4.062000000     4.749000000     0.545000000
C    -4.092000000     2.626000000     0.310000000
C    -4.569000000     1.674000000    -0.572000000
H    -4.844000000     1.980000000    -1.578000000
C    -3.731000000     2.295000000     1.595000000
C    -3.832000000     0.934000000     1.958000000
H    -3.371000000     0.650000000     2.900000000
C    -4.292000000    -0.014000000     1.011000000
O    -4.202000000    -1.307000000     1.427000000
C    -3.194000000    -2.104000000     0.787000000
C    -2.503000000    -2.925000000     1.870000000
C    -1.798000000    -4.077000000     1.473000000
H    -1.502000000    -4.216000000     0.437000000
C    -2.657000000    -2.584000000     3.230000000
H    -3.239000000    -1.726000000     3.556000000
O    -3.838000000    -2.918000000    -0.226000000
H    -2.443000000    -1.406000000     0.389000000
C    -4.807000000     0.359000000    -0.200000000
C    -5.294000000    -0.655000000    -1.231000000
H    -5.898000000    -0.260000000    -2.050000000
H    -5.795000000    -1.515000000    -0.782000000
C    -4.221000000    -1.358000000    -2.014000000
C    -3.753000000    -0.832000000    -3.206000000
H    -4.233000000     0.042000000    -3.640000000
C    -3.624000000    -2.547000000    -1.499000000
C    -2.669000000    -3.151000000    -2.280000000
H    -2.141000000    -4.010000000    -1.874000000
C    -2.166000000    -2.593000000    -3.449000000
O    -1.076000000    -3.250000000    -3.952000000
C     0.193000000    -2.568000000    -3.663000000
C     1.290000000    -3.638000000    -3.362000000
C     0.960000000    -4.919000000    -2.950000000
H    -0.100000000    -5.086000000    -2.772000000
C     2.628000000    -3.402000000    -3.592000000
H     2.857000000    -2.421000000    -4.001000000
O     0.592000000    -1.696000000    -4.747000000
H     0.003000000    -1.998000000    -2.742000000
C    -2.734000000    -1.410000000    -3.935000000
C    -2.203000000    -0.691000000    -5.189000000
H    -2.939000000    -0.230000000    -5.851000000
H    -1.946000000    -1.457000000    -5.923000000
C    -0.995000000     0.164000000    -4.812000000
C     0.293000000    -0.380000000    -4.568000000
C     1.358000000     0.517000000    -4.225000000
H     2.326000000     0.089000000    -3.976000000
C     1.052000000     1.843000000    -4.004000000
O     2.032000000     2.657000000    -3.539000000
C     1.908000000     2.961000000    -2.109000000
H     1.062000000     2.385000000    -1.705000000
C     3.165000000     2.712000000    -1.296000000
C     3.668000000     3.657000000    -0.382000000
H     3.307000000     4.682000000    -0.374000000
C     3.704000000     1.448000000    -1.364000000
H     3.239000000     0.727000000    -2.031000000
C     4.712000000     0.997000000    -0.523000000
O     5.181000000    -0.313000000    -0.628000000
C     5.301000000     1.960000000     0.315000000
H     6.074000000     1.598000000     0.987000000
C     4.750000000     3.233000000     0.409000000
O     5.279000000     4.106000000     1.299000000
C     4.502000000     4.905000000     1.988000000
C     3.731000000     4.412000000     3.016000000
H     3.781000000     3.356000000     3.270000000
C     4.662000000     6.249000000     1.747000000
H     5.303000000     6.609000000     0.947000000
C     3.861000000     7.166000000     2.519000000
H     3.901000000     8.245000000     2.393000000
C     3.085000000     6.660000000     3.590000000
H     2.522000000     7.345000000     4.219000000
C     3.002000000     5.216000000     3.823000000
O     2.332000000     4.721000000     4.870000000
C     1.078000000     4.074000000     4.793000000
C     0.802000000     3.185000000     5.843000000
H     1.484000000     3.041000000     6.676000000
C    -0.320000000     2.388000000     5.695000000
O    -0.554000000     1.420000000     6.633000000
C    -1.541000000     0.479000000     6.638000000
C    -1.319000000    -0.743000000     6.023000000
H    -0.343000000    -0.929000000     5.582000000
C    -2.786000000     0.700000000     7.202000000
H    -3.012000000     1.635000000     7.708000000
C    -3.702000000    -0.359000000     7.295000000
H    -4.669000000    -0.330000000     7.790000000
C    -3.392000000    -1.569000000     6.711000000
H    -4.119000000    -2.373000000     6.790000000
C    -2.239000000    -1.753000000     6.016000000
O    -2.046000000    -2.996000000     5.578000000
C    -1.989000000    -3.358000000     4.237000000
C    -1.387000000    -4.554000000     3.817000000
H    -0.925000000    -5.211000000     4.549000000
C    -1.188000000    -4.815000000     2.485000000
O    -0.625000000    -5.960000000     2.190000000
C    -0.725000000    -6.586000000     0.973000000
C     0.436000000    -6.566000000     0.142000000
H     1.271000000    -5.883000000     0.271000000
C    -1.767000000    -7.372000000     0.601000000
H    -2.660000000    -7.395000000     1.220000000
C    -1.782000000    -8.092000000    -0.613000000
H    -2.598000000    -8.780000000    -0.821000000
C    -0.641000000    -8.008000000    -1.450000000
H    -0.714000000    -8.530000000    -2.400000000
C     0.452000000    -7.194000000    -1.101000000
O     1.440000000    -7.083000000    -2.050000000
C     1.919000000    -5.851000000    -2.564000000
C     3.256000000    -5.575000000    -2.782000000
H     4.017000000    -6.239000000    -2.381000000
C     3.621000000    -4.327000000    -3.254000000
O     4.904000000    -3.936000000    -3.606000000
C     5.323000000    -2.630000000    -3.360000000
C     6.233000000    -1.974000000    -4.251000000
H     6.387000000    -2.462000000    -5.210000000
C     6.718000000    -0.734000000    -3.962000000
H     7.410000000    -0.291000000    -4.674000000
C     6.326000000    -0.075000000    -2.759000000
H     6.811000000     0.859000000    -2.485000000
C     5.491000000    -0.788000000    -1.847000000
C     5.003000000    -2.065000000    -2.136000000
H     4.463000000    -2.642000000    -1.390000000
O     3.704000000    -1.148000000     2.394000000
H     3.416000000    -1.326000000     1.498000000
H     3.272000000    -0.326000000     2.626000000
O     6.086000000    -2.371000000     1.953000000
H     5.256000000    -1.920000000     2.107000000
H     5.855000000    -3.300000000     1.945000000
O     2.017000000    -6.183000000     7.351000000
H     1.942000000    -6.755000000     8.115000000
H     2.907000000    -5.834000000     7.398000000
O     4.268000000    -6.919000000     4.596000000
H     3.700000000    -6.148000000     4.616000000
H     3.785000000    -7.559000000     4.073000000
O     3.928000000    -7.637000000     0.951000000
H     3.600000000    -6.809000000     1.304000000
H     3.176000000    -8.228000000     0.991000000
O     1.684000000    -7.495000000     3.355000000
H     2.027000000    -6.693000000     2.960000000
H     1.785000000    -8.159000000     2.673000000
O     8.012000000    -3.135000000     3.849000000
H     8.845000000    -3.010000000     3.393000000
H     7.347000000    -2.994000000     3.175000000
O     2.219000000    -3.476000000     6.403000000
H     1.830000000    -4.305000000     6.679000000
H     2.492000000    -3.629000000     5.498000000
O     0.362000000    -7.668000000     5.832000000
H     0.948000000    -7.613000000     5.078000000
H     0.780000000    -7.125000000     6.501000000
O     2.842000000     1.141000000     4.023000000
H     2.299000000     0.557000000     4.551000000
H     3.213000000     1.759000000     4.653000000
O     7.280000000    -4.863000000    -1.066000000
H     7.970000000    -5.491000000    -0.852000000
H     6.478000000    -5.267000000    -0.735000000
O     2.170000000    -9.540000000     1.579000000
H     2.929000000   -10.030000000     1.262000000
H     1.448000000   -10.167000000     1.540000000
O     4.759000000    -5.502000000     7.023000000
H     4.612000000    -4.790000000     6.400000000
H     5.689000000    -5.709000000     6.935000000
O     4.871000000    -3.327000000     5.144000000
H     4.955000000    -2.405000000     4.904000000
H     4.086000000    -3.624000000     4.684000000
O     5.469000000    -5.018000000     1.690000000
H     4.592000000    -5.333000000     1.913000000
H     6.037000000    -5.400000000     2.359000000
O     6.738000000    -5.875000000     3.666000000
H     7.180000000    -5.055000000     3.888000000
H     6.070000000    -5.978000000     4.343000000
O     5.762000000    -8.053000000    -0.941000000
H     5.278000000    -7.877000000    -0.134000000
H     6.214000000    -8.880000000    -0.773000000
O     5.389000000    -0.338000000     5.199000000
H     4.964000000     0.508000000     5.337000000
H     5.096000000    -0.615000000     4.331000000
O     2.372000000    -0.973000000     5.722000000
H     2.790000000    -0.618000000     6.507000000
H     2.277000000    -1.908000000     5.903000000
