201
-1230.97747
C     0.207000000     1.462000000     5.143000000
H    -0.867000000     1.318000000     5.228000000
C     0.668000000     2.356000000     4.142000000
C     2.021000000     2.385000000     3.905000000
H     2.468000000     2.809000000     3.009000000
C    -0.362000000     2.957000000     3.165000000
O    -1.686000000     2.947000000     3.678000000
H    -0.248000000     2.343000000     2.260000000
O     0.014000000     4.338000000     2.807000000
C    -0.066000000     4.563000000     1.432000000
C     1.093000000     4.252000000     0.714000000
H     2.016000000     3.834000000     1.107000000
C     1.069000000     4.329000000    -0.694000000
O     2.180000000     3.856000000    -1.449000000
C    -0.148000000     4.573000000    -1.339000000
C    -0.196000000     4.690000000    -2.841000000
H    -1.010000000     5.331000000    -3.185000000
C    -0.400000000     3.292000000    -3.534000000
C    -1.677000000     2.929000000    -3.871000000
H    -2.448000000     3.615000000    -3.530000000
H     0.768000000     5.046000000    -3.208000000
C    -1.350000000     4.841000000    -0.597000000
H    -2.274000000     5.167000000    -1.067000000
C    -1.319000000     4.760000000     0.812000000
C    -2.633000000     4.911000000     1.598000000
H    -3.353000000     5.513000000     1.039000000
H    -2.447000000     5.337000000     2.585000000
C    -3.167000000     3.458000000     1.752000000
C    -4.110000000     2.942000000     0.773000000
H    -4.263000000     3.630000000    -0.055000000
C    -2.773000000     2.640000000     2.871000000
C    -3.238000000     1.367000000     2.892000000
H    -2.856000000     0.753000000     3.704000000
C    -4.167000000     0.867000000     1.962000000
O    -4.673000000    -0.427000000     2.138000000
C    -4.006000000    -1.451000000     1.325000000
C    -3.597000000    -2.723000000     2.047000000
C    -3.580000000    -3.977000000     1.403000000
H    -4.134000000    -4.145000000     0.483000000
C    -2.815000000    -2.466000000     3.200000000
H    -2.611000000    -1.469000000     3.581000000
O    -4.868000000    -1.698000000     0.155000000
H    -3.123000000    -0.962000000     0.886000000
C    -4.670000000     1.669000000     0.897000000
C    -5.705000000     1.225000000    -0.105000000
H    -6.215000000     2.059000000    -0.592000000
H    -6.362000000     0.484000000     0.355000000
C    -4.943000000     0.338000000    -1.167000000
C    -4.474000000     0.945000000    -2.279000000
H    -4.752000000     1.996000000    -2.304000000
C    -4.585000000    -0.990000000    -0.998000000
C    -3.934000000    -1.739000000    -1.969000000
H    -3.759000000    -2.787000000    -1.741000000
C    -3.429000000    -1.054000000    -3.111000000
O    -2.658000000    -1.789000000    -3.873000000
C    -1.282000000    -1.410000000    -3.854000000
C    -0.344000000    -2.608000000    -3.888000000
C    -0.424000000    -3.553000000    -2.821000000
H    -1.196000000    -3.495000000    -2.058000000
C     0.715000000    -2.752000000    -4.792000000
H     0.834000000    -2.016000000    -5.583000000
O    -1.082000000    -0.523000000    -4.931000000
H    -1.073000000    -0.977000000    -2.864000000
C    -3.883000000     0.270000000    -3.356000000
C    -3.405000000     1.025000000    -4.569000000
H    -4.048000000     1.898000000    -4.704000000
H    -3.442000000     0.354000000    -5.429000000
C    -1.949000000     1.598000000    -4.348000000
C    -0.886000000     0.746000000    -4.622000000
C     0.406000000     1.184000000    -4.359000000
H     1.177000000     0.440000000    -4.543000000
C     0.677000000     2.366000000    -3.812000000
O     1.937000000     2.505000000    -3.334000000
C     2.255000000     2.503000000    -1.913000000
H     1.489000000     1.921000000    -1.380000000
C     3.660000000     1.949000000    -1.676000000
C     4.533000000     2.500000000    -0.767000000
H     4.244000000     3.422000000    -0.269000000
C     4.026000000     0.735000000    -2.346000000
H     3.346000000     0.353000000    -3.104000000
C     5.320000000     0.193000000    -2.139000000
O     5.733000000    -0.921000000    -2.802000000
C     6.264000000     0.859000000    -1.349000000
H     7.293000000     0.547000000    -1.186000000
C     5.819000000     1.917000000    -0.539000000
O     6.688000000     2.412000000     0.464000000
C     6.104000000     2.909000000     1.598000000
C     5.412000000     2.033000000     2.409000000
H     5.298000000     0.978000000     2.173000000
C     6.347000000     4.242000000     1.968000000
H     7.069000000     4.839000000     1.417000000
C     5.813000000     4.757000000     3.158000000
H     5.782000000     5.822000000     3.371000000
C     4.995000000     3.917000000     3.849000000
H     4.437000000     4.322000000     4.689000000
C     4.884000000     2.555000000     3.597000000
O     4.260000000     1.644000000     4.507000000
C     2.912000000     1.721000000     4.767000000
C     2.419000000     1.054000000     5.844000000
H     3.159000000     0.618000000     6.511000000
C     1.101000000     0.803000000     6.039000000
O     0.750000000    -0.002000000     7.066000000
C    -0.421000000    -0.633000000     6.987000000
C    -0.435000000    -1.818000000     6.243000000
H     0.477000000    -2.237000000     5.826000000
C    -1.583000000    -0.158000000     7.517000000
H    -1.554000000     0.864000000     7.885000000
C    -2.793000000    -0.823000000     7.200000000
H    -3.715000000    -0.307000000     7.455000000
C    -2.862000000    -1.924000000     6.333000000
H    -3.815000000    -2.383000000     6.081000000
C    -1.640000000    -2.456000000     5.846000000
O    -1.618000000    -3.586000000     5.051000000
C    -2.313000000    -3.590000000     3.848000000
C    -2.393000000    -4.861000000     3.243000000
H    -2.064000000    -5.704000000     3.844000000
C    -3.061000000    -5.050000000     2.048000000
O    -3.054000000    -6.285000000     1.443000000
C    -2.347000000    -6.638000000     0.293000000
C    -1.248000000    -5.844000000    -0.110000000
H    -0.846000000    -4.989000000     0.427000000
C    -2.808000000    -7.602000000    -0.602000000
H    -3.645000000    -8.232000000    -0.312000000
C    -2.103000000    -7.908000000    -1.702000000
H    -2.513000000    -8.691000000    -2.335000000
C    -0.987000000    -7.164000000    -2.077000000
H    -0.527000000    -7.521000000    -2.995000000
C    -0.580000000    -6.105000000    -1.278000000
O     0.595000000    -5.414000000    -1.620000000
C     0.561000000    -4.511000000    -2.670000000
C     1.614000000    -4.625000000    -3.572000000
H     2.360000000    -5.377000000    -3.326000000
C     1.706000000    -3.710000000    -4.622000000
O     2.834000000    -3.770000000    -5.371000000
C     3.876000000    -2.842000000    -5.331000000
C     4.548000000    -2.412000000    -6.498000000
H     4.278000000    -2.812000000    -7.471000000
C     5.478000000    -1.319000000    -6.419000000
H     5.922000000    -0.841000000    -7.288000000
C     5.901000000    -0.750000000    -5.191000000
H     6.547000000     0.115000000    -5.068000000
C     5.300000000    -1.296000000    -4.077000000
C     4.311000000    -2.268000000    -4.148000000
H     3.958000000    -2.593000000    -3.173000000
O     5.888000000    -4.279000000     1.291000000
H     5.973000000    -5.011000000     1.903000000
H     5.004000000    -4.368000000     0.933000000
O     3.114000000    -8.083000000     5.661000000
H     2.584000000    -7.910000000     4.883000000
H     3.128000000    -7.250000000     6.131000000
O     2.108000000    -9.098000000     2.913000000
H     1.908000000    -8.242000000     2.534000000
H     3.064000000    -9.152000000     2.892000000
O     2.244000000    -6.780000000     0.571000000
H     2.905000000    -6.162000000     0.884000000
H     1.809000000    -6.320000000    -0.147000000
O     4.927000000    -8.696000000    -0.698000000
H     5.548000000    -9.169000000    -0.144000000
H     4.746000000    -9.297000000    -1.421000000
O     5.676000000    -4.399000000     6.158000000
H     5.234000000    -4.952000000     5.513000000
H     5.027000000    -3.733000000     6.386000000
O     1.807000000    -9.828000000    -0.295000000
H     1.117000000    -9.378000000    -0.783000000
H     2.233000000    -9.136000000     0.211000000
O     4.983000000    -7.445000000     1.924000000
H     4.470000000    -7.858000000     1.229000000
H     5.887000000    -7.698000000     1.736000000
O     4.617000000    -5.459000000     3.841000000
H     4.576000000    -6.387000000     3.610000000
H     3.882000000    -5.063000000     3.374000000
O     5.143000000    -5.997000000    -3.985000000
H     5.728000000    -5.298000000    -4.276000000
H     4.761000000    -5.666000000    -3.172000000
O     2.585000000    -5.549000000     6.677000000
H     2.884000000    -4.889000000     6.051000000
H     2.288000000    -5.043000000     7.434000000
O     7.955000000     0.197000000     3.993000000
H     8.654000000    -0.444000000     4.121000000
H     7.369000000    -0.212000000     3.356000000
O     4.271000000    -5.850000000    -1.196000000
H     3.970000000    -5.119000000    -0.656000000
H     4.109000000    -6.626000000    -0.659000000
O     1.199000000    -6.336000000     3.853000000
H     1.743000000    -6.248000000     3.071000000
H     0.855000000    -5.456000000     4.006000000
O     6.777000000    -1.330000000     1.482000000
H     6.166000000    -1.836000000     2.018000000
H     6.975000000    -1.902000000     0.740000000
O     7.210000000    -4.450000000    -1.570000000
H     6.389000000    -4.640000000    -1.116000000
H     7.705000000    -3.910000000    -0.953000000
O     4.396000000    -2.007000000     6.769000000
H     5.055000000    -1.317000000     6.682000000
H     3.886000000    -1.953000000     5.960000000
O     8.608000000    -2.302000000    -0.393000000
H     8.825000000    -1.946000000    -1.255000000
H     8.986000000    -1.677000000     0.225000000
O     3.060000000    -2.694000000     4.278000000
H     3.754000000    -2.237000000     3.802000000
H     2.737000000    -3.349000000     3.659000000
