201
-1215.14078
C     1.196000000     2.072000000     4.175000000
H     0.122000000     1.922000000     4.242000000
C     1.643000000     3.008000000     3.341000000
C     2.989000000     3.203000000     3.198000000
H     3.400000000     3.918000000     2.490000000
C     0.622000000     3.677000000     2.381000000
O    -0.690000000     4.078000000     2.938000000
H     0.407000000     2.896000000     1.636000000
O     1.212000000     4.730000000     1.568000000
C     0.972000000     4.619000000     0.259000000
C     1.957000000     3.945000000    -0.457000000
H     2.872000000     3.697000000     0.074000000
C     1.794000000     3.756000000    -1.810000000
O     2.778000000     3.088000000    -2.480000000
C     0.571000000     4.027000000    -2.442000000
C     0.253000000     3.773000000    -3.879000000
H    -0.456000000     4.537000000    -4.204000000
C    -0.175000000     2.382000000    -4.273000000
C    -1.553000000     2.125000000    -4.275000000
H    -2.339000000     2.827000000    -4.011000000
H     1.108000000     4.015000000    -4.513000000
C    -0.359000000     4.735000000    -1.689000000
H    -1.301000000     5.073000000    -2.114000000
C    -0.203000000     4.998000000    -0.350000000
C    -1.376000000     5.548000000     0.508000000
H    -2.106000000     6.106000000    -0.083000000
H    -0.978000000     6.199000000     1.290000000
C    -2.159000000     4.364000000     1.081000000
C    -3.271000000     3.865000000     0.394000000
H    -3.384000000     4.324000000    -0.585000000
C    -1.838000000     3.734000000     2.225000000
C    -2.605000000     2.717000000     2.776000000
H    -2.284000000     2.094000000     3.607000000
C    -3.690000000     2.221000000     2.090000000
O    -4.275000000     1.192000000     2.707000000
C    -3.904000000    -0.107000000     2.151000000
C    -3.811000000    -1.244000000     3.187000000
C    -3.758000000    -2.579000000     2.686000000
H    -3.998000000    -2.786000000     1.646000000
C    -3.509000000    -0.989000000     4.578000000
H    -3.427000000     0.035000000     4.934000000
O    -4.853000000    -0.492000000     1.107000000
H    -2.856000000     0.000000000     1.833000000
C    -4.047000000     2.785000000     0.864000000
C    -5.157000000     2.204000000     0.044000000
H    -5.553000000     2.893000000    -0.706000000
H    -6.024000000     1.908000000     0.638000000
C    -4.630000000     1.027000000    -0.751000000
C    -4.250000000     1.339000000    -2.043000000
H    -4.332000000     2.335000000    -2.470000000
C    -4.573000000    -0.219000000    -0.216000000
C    -4.231000000    -1.298000000    -1.004000000
H    -4.293000000    -2.289000000    -0.560000000
C    -3.843000000    -1.051000000    -2.267000000
O    -3.108000000    -2.039000000    -2.865000000
C    -1.682000000    -1.947000000    -3.136000000
C    -1.063000000    -3.353000000    -2.895000000
C    -1.715000000    -4.362000000    -2.073000000
H    -2.764000000    -4.174000000    -1.858000000
C     0.235000000    -3.715000000    -3.358000000
H     0.793000000    -3.034000000    -3.995000000
O    -1.428000000    -1.498000000    -4.477000000
H    -1.251000000    -1.189000000    -2.466000000
C    -3.833000000     0.258000000    -2.810000000
C    -3.477000000     0.475000000    -4.257000000
H    -4.163000000     1.201000000    -4.700000000
H    -3.752000000    -0.408000000    -4.837000000
C    -1.979000000     0.802000000    -4.397000000
C    -1.037000000    -0.197000000    -4.554000000
C     0.336000000     0.059000000    -4.649000000
H     1.041000000    -0.768000000    -4.620000000
C     0.812000000     1.375000000    -4.491000000
O     2.118000000     1.557000000    -4.317000000
C     2.583000000     1.631000000    -2.873000000
H     1.819000000     1.205000000    -2.205000000
C     3.915000000     0.787000000    -2.651000000
C     4.734000000     1.091000000    -1.568000000
H     4.500000000     1.917000000    -0.900000000
C     4.248000000    -0.284000000    -3.471000000
H     3.531000000    -0.481000000    -4.263000000
C     5.315000000    -1.096000000    -3.218000000
O     5.633000000    -2.112000000    -4.131000000
C     6.113000000    -0.846000000    -2.118000000
H     6.922000000    -1.562000000    -1.995000000
C     5.827000000     0.260000000    -1.338000000
O     6.550000000     0.435000000    -0.155000000
C     6.566000000     1.621000000     0.558000000
C     5.889000000     1.611000000     1.775000000
H     5.447000000     0.687000000     2.138000000
C     7.118000000     2.757000000     0.042000000
H     7.597000000     2.651000000    -0.927000000
C     7.037000000     3.948000000     0.732000000
H     7.499000000     4.853000000     0.347000000
C     6.409000000     3.970000000     1.973000000
H     6.415000000     4.883000000     2.562000000
C     5.777000000     2.820000000     2.439000000
O     5.184000000     2.946000000     3.725000000
C     3.894000000     2.572000000     4.024000000
C     3.417000000     1.577000000     4.897000000
H     4.127000000     0.868000000     5.315000000
C     2.085000000     1.306000000     4.946000000
O     1.768000000     0.344000000     5.857000000
C     0.569000000     0.301000000     6.539000000
C    -0.396000000    -0.613000000     6.031000000
H    -0.159000000    -1.284000000     5.210000000
C     0.330000000     1.103000000     7.624000000
H     1.137000000     1.785000000     7.879000000
C    -0.885000000     0.981000000     8.331000000
H    -1.011000000     1.519000000     9.267000000
C    -1.841000000    -0.006000000     7.917000000
H    -2.749000000    -0.185000000     8.487000000
C    -1.564000000    -0.827000000     6.813000000
O    -2.511000000    -1.774000000     6.540000000
C    -2.909000000    -2.065000000     5.297000000
C    -3.092000000    -3.371000000     4.853000000
H    -2.968000000    -4.174000000     5.575000000
C    -3.522000000    -3.595000000     3.541000000
O    -3.712000000    -4.959000000     3.270000000
C    -3.868000000    -5.389000000     1.969000000
C    -2.759000000    -5.687000000     1.218000000
H    -1.774000000    -5.599000000     1.668000000
C    -5.189000000    -5.591000000     1.420000000
H    -6.054000000    -5.425000000     2.057000000
C    -5.361000000    -6.101000000     0.048000000
H    -6.325000000    -6.217000000    -0.440000000
C    -4.174000000    -6.318000000    -0.646000000
H    -4.262000000    -6.524000000    -1.710000000
C    -2.901000000    -6.190000000    -0.078000000
O    -1.793000000    -6.469000000    -0.865000000
C    -1.080000000    -5.455000000    -1.578000000
C     0.203000000    -5.715000000    -2.017000000
H     0.667000000    -6.673000000    -1.798000000
C     0.802000000    -4.888000000    -3.001000000
O     2.076000000    -5.295000000    -3.391000000
C     2.876000000    -4.622000000    -4.327000000
C     2.817000000    -4.855000000    -5.678000000
H     2.084000000    -5.548000000    -6.085000000
C     3.625000000    -4.128000000    -6.539000000
H     3.596000000    -4.342000000    -7.604000000
C     4.590000000    -3.286000000    -6.021000000
H     5.261000000    -2.786000000    -6.715000000
C     4.681000000    -2.974000000    -4.649000000
C     3.833000000    -3.671000000    -3.842000000
H     3.837000000    -3.448000000    -2.778000000
O     1.105000000    -4.475000000     6.698000000
H     0.232000000    -4.849000000     6.579000000
H     1.373000000    -4.208000000     5.819000000
O     3.910000000    -2.875000000     6.152000000
H     3.317000000    -3.046000000     6.883000000
H     3.332000000    -2.702000000     5.409000000
O     0.034000000    -5.640000000     3.934000000
H     0.706000000    -5.019000000     4.216000000
H    -0.628000000    -5.606000000     4.624000000
O     2.922000000    -0.573000000     9.538000000
H     2.845000000    -1.391000000     9.047000000
H     3.264000000    -0.839000000    10.392000000
O     5.211000000    -5.046000000     0.469000000
H     5.536000000    -4.366000000     1.060000000
H     5.973000000    -5.290000000    -0.056000000
O     5.194000000    -5.438000000     5.306000000
H     4.914000000    -4.616000000     5.708000000
H     4.590000000    -5.564000000     4.574000000
O     3.341000000    -5.416000000     3.258000000
H     3.811000000    -4.962000000     2.559000000
H     2.868000000    -4.723000000     3.719000000
O    -1.328000000    -5.777000000     6.105000000
H    -2.242000000    -5.904000000     5.852000000
H    -1.349000000    -5.726000000     7.061000000
O     5.913000000    -1.400000000     4.058000000
H     6.422000000    -1.833000000     3.373000000
H     5.003000000    -1.617000000     3.854000000
O     4.370000000    -1.725000000     1.158000000
H     4.030000000    -1.958000000     2.022000000
H     5.213000000    -2.176000000     1.103000000
O     6.697000000    -3.181000000     1.964000000
H     7.389000000    -2.925000000     1.355000000
H     6.976000000    -4.032000000     2.300000000
O     5.215000000    -0.582000000     7.134000000
H     4.926000000    -1.254000000     6.516000000
H     6.103000000    -0.846000000     7.376000000
O     2.348000000    -6.659000000     7.485000000
H     1.843000000    -5.937000000     7.112000000
H     2.594000000    -6.353000000     8.358000000
O     2.114000000    -2.460000000    -0.774000000
H     1.280000000    -2.261000000    -0.348000000
H     2.767000000    -1.999000000    -0.249000000
O     7.962000000    -0.260000000     5.340000000
H     8.565000000    -0.565000000     4.662000000
H     7.094000000    -0.497000000     5.014000000
O     2.745000000    -3.128000000     8.606000000
H     2.486000000    -3.387000000     9.491000000
H     2.181000000    -3.645000000     8.031000000
O     3.285000000    -8.427000000     3.388000000
H     2.912000000    -8.977000000     4.078000000
H     3.256000000    -7.540000000     3.746000000
O     2.681000000    -5.677000000    -0.309000000
H     3.593000000    -5.423000000    -0.173000000
H     2.265000000    -4.894000000    -0.670000000
O     0.942000000    -7.236000000     1.490000000
H     1.008000000    -6.546000000     2.150000000
H     1.462000000    -6.914000000     0.754000000
