201
-1249.63642
C     0.913000000     2.711000000     4.676000000
H    -0.141000000     2.790000000     4.932000000
C     1.449000000     3.296000000     3.537000000
C     2.799000000     3.281000000     3.237000000
H     3.132000000     3.505000000     2.227000000
C     0.508000000     3.725000000     2.429000000
O    -0.784000000     4.346000000     2.840000000
H     0.243000000     2.802000000     1.893000000
O     1.232000000     4.565000000     1.517000000
C     1.004000000     4.315000000     0.186000000
C     2.080000000     3.862000000    -0.651000000
H     3.065000000     3.558000000    -0.305000000
C     1.865000000     3.581000000    -2.007000000
O     2.863000000     3.022000000    -2.742000000
C     0.621000000     3.807000000    -2.592000000
C     0.351000000     3.512000000    -4.059000000
H    -0.439000000     4.148000000    -4.464000000
C    -0.051000000     2.076000000    -4.276000000
C    -1.424000000     1.723000000    -4.484000000
H    -2.140000000     2.539000000    -4.535000000
H     1.210000000     3.831000000    -4.653000000
C    -0.382000000     4.305000000    -1.821000000
H    -1.314000000     4.538000000    -2.331000000
C    -0.187000000     4.648000000    -0.500000000
C    -1.347000000     5.382000000     0.192000000
H    -1.995000000     5.918000000    -0.504000000
H    -1.036000000     6.124000000     0.931000000
C    -2.204000000     4.319000000     0.931000000
C    -3.288000000     3.759000000     0.191000000
H    -3.599000000     4.204000000    -0.750000000
C    -1.847000000     3.751000000     2.158000000
C    -2.585000000     2.684000000     2.720000000
H    -2.318000000     2.313000000     3.706000000
C    -3.603000000     2.083000000     1.952000000
O    -4.120000000     0.909000000     2.528000000
C    -3.869000000    -0.333000000     1.874000000
C    -3.655000000    -1.416000000     2.914000000
C    -3.775000000    -2.772000000     2.569000000
H    -4.004000000    -3.021000000     1.536000000
C    -3.039000000    -1.100000000     4.149000000
H    -2.922000000    -0.035000000     4.330000000
O    -4.867000000    -0.724000000     0.954000000
H    -2.922000000    -0.332000000     1.313000000
C    -3.984000000     2.651000000     0.691000000
C    -5.192000000     2.024000000    -0.024000000
H    -5.467000000     2.704000000    -0.833000000
H    -6.112000000     1.814000000     0.525000000
C    -4.769000000     0.820000000    -0.927000000
C    -4.367000000     1.044000000    -2.272000000
H    -4.356000000     2.080000000    -2.601000000
C    -4.555000000    -0.495000000    -0.380000000
C    -4.227000000    -1.547000000    -1.224000000
H    -4.105000000    -2.503000000    -0.721000000
C    -3.807000000    -1.348000000    -2.551000000
O    -3.201000000    -2.389000000    -3.257000000
C    -1.741000000    -2.346000000    -3.298000000
C    -1.013000000    -3.585000000    -2.786000000
C    -1.496000000    -4.353000000    -1.764000000
H    -2.475000000    -4.180000000    -1.326000000
C     0.247000000    -3.933000000    -3.292000000
H     0.679000000    -3.267000000    -4.034000000
O    -1.316000000    -1.839000000    -4.632000000
H    -1.393000000    -1.552000000    -2.620000000
C    -3.885000000    -0.057000000    -3.067000000
C    -3.393000000     0.197000000    -4.524000000
H    -3.882000000     1.036000000    -5.023000000
H    -3.747000000    -0.661000000    -5.100000000
C    -1.890000000     0.418000000    -4.616000000
C    -0.890000000    -0.596000000    -4.662000000
C     0.457000000    -0.240000000    -4.613000000
H     1.167000000    -1.058000000    -4.517000000
C     0.858000000     1.045000000    -4.403000000
O     2.191000000     1.238000000    -4.130000000
C     2.719000000     1.582000000    -2.828000000
H     1.998000000     1.282000000    -2.053000000
C     4.085000000     0.883000000    -2.578000000
C     5.008000000     1.367000000    -1.690000000
H     4.773000000     2.327000000    -1.238000000
C     4.346000000    -0.398000000    -3.143000000
H     3.819000000    -0.789000000    -4.010000000
C     5.478000000    -1.142000000    -2.822000000
O     5.651000000    -2.475000000    -3.268000000
C     6.382000000    -0.576000000    -1.855000000
H     7.296000000    -1.103000000    -1.595000000
C     6.143000000     0.667000000    -1.296000000
O     6.977000000     1.155000000    -0.288000000
C     6.628000000     2.109000000     0.659000000
C     6.113000000     1.857000000     1.947000000
H     5.978000000     0.824000000     2.260000000
C     6.814000000     3.444000000     0.193000000
H     7.221000000     3.636000000    -0.796000000
C     6.296000000     4.491000000     0.993000000
H     6.240000000     5.514000000     0.631000000
C     5.678000000     4.233000000     2.207000000
H     5.314000000     5.037000000     2.841000000
C     5.680000000     2.932000000     2.717000000
O     5.140000000     2.638000000     3.990000000
C     3.750000000     2.744000000     4.147000000
C     3.235000000     2.105000000     5.287000000
H     3.915000000     1.679000000     6.020000000
C     1.888000000     2.084000000     5.573000000
O     1.389000000     1.700000000     6.819000000
C     0.045000000     1.229000000     7.040000000
C    -0.292000000    -0.036000000     6.665000000
H     0.469000000    -0.688000000     6.242000000
C    -0.937000000     2.122000000     7.461000000
H    -0.738000000     3.140000000     7.786000000
C    -2.208000000     1.694000000     7.592000000
H    -2.921000000     2.450000000     7.912000000
C    -2.580000000     0.410000000     7.184000000
H    -3.643000000     0.184000000     7.207000000
C    -1.602000000    -0.473000000     6.697000000
O    -1.896000000    -1.734000000     6.179000000
C    -2.574000000    -2.084000000     5.043000000
C    -2.804000000    -3.422000000     4.729000000
H    -2.436000000    -4.220000000     5.369000000
C    -3.518000000    -3.745000000     3.552000000
O    -3.970000000    -5.121000000     3.431000000
C    -3.880000000    -5.672000000     2.167000000
C    -2.639000000    -5.758000000     1.559000000
H    -1.783000000    -5.228000000     1.969000000
C    -4.987000000    -6.215000000     1.488000000
H    -5.946000000    -6.180000000     1.998000000
C    -4.894000000    -6.669000000     0.147000000
H    -5.703000000    -7.160000000    -0.387000000
C    -3.665000000    -6.533000000    -0.500000000
H    -3.552000000    -6.930000000    -1.506000000
C    -2.547000000    -6.168000000     0.232000000
O    -1.310000000    -6.279000000    -0.363000000
C    -0.863000000    -5.524000000    -1.439000000
C     0.353000000    -5.888000000    -1.976000000
H     0.898000000    -6.772000000    -1.656000000
C     0.946000000    -5.141000000    -3.036000000
O     1.981000000    -5.617000000    -3.818000000
C     2.954000000    -4.754000000    -4.346000000
C     3.129000000    -4.640000000    -5.744000000
H     2.437000000    -5.175000000    -6.390000000
C     4.102000000    -3.846000000    -6.323000000
H     4.197000000    -3.851000000    -7.406000000
C     4.961000000    -3.151000000    -5.463000000
H     5.822000000    -2.626000000    -5.869000000
C     4.759000000    -3.173000000    -4.058000000
C     3.703000000    -3.959000000    -3.501000000
H     3.419000000    -3.918000000    -2.453000000
O     0.358000000    -3.794000000     6.922000000
H    -0.561000000    -3.586000000     7.086000000
H     0.511000000    -3.513000000     6.020000000
O     3.293000000    -1.462000000     6.738000000
H     2.753000000    -0.873000000     7.265000000
H     2.806000000    -1.567000000     5.921000000
O    -0.260000000    -5.950000000     4.716000000
H    -0.144000000    -5.022000000     4.511000000
H    -1.064000000    -5.982000000     5.233000000
O     5.025000000    -6.400000000     1.537000000
H     5.412000000    -5.545000000     1.724000000
H     5.776000000    -6.986000000     1.437000000
O     5.885000000    -3.001000000     8.365000000
H     6.071000000    -2.227000000     7.833000000
H     5.317000000    -3.539000000     7.814000000
O     3.363000000    -4.733000000     3.914000000
H     2.950000000    -3.888000000     4.094000000
H     2.715000000    -5.211000000     3.397000000
O     1.539000000    -6.537000000     2.747000000
H     1.295000000    -7.163000000     2.065000000
H     0.764000000    -6.479000000     3.307000000
O     5.317000000    -6.568000000     7.065000000
H     4.923000000    -5.700000000     6.975000000
H     6.072000000    -6.551000000     6.476000000
O     6.260000000    -4.010000000     2.933000000
H     5.412000000    -4.338000000     3.231000000
H     6.867000000    -4.243000000     3.635000000
O     4.258000000    -1.184000000     3.478000000
H     3.926000000    -1.108000000     2.584000000
H     3.513000000    -1.508000000     3.984000000
O     4.269000000    -0.910000000     0.567000000
H     5.067000000    -1.438000000     0.540000000
H     4.328000000    -0.347000000    -0.205000000
O     5.857000000    -0.473000000     7.026000000
H     5.026000000    -0.829000000     6.712000000
H     6.356000000    -0.291000000     6.230000000
O     1.352000000    -5.742000000     8.914000000
H     1.022000000    -5.386000000     8.089000000
H     2.177000000    -5.281000000     9.062000000
O     2.436000000    -2.876000000    -0.162000000
H     1.514000000    -2.907000000     0.094000000
H     2.759000000    -2.053000000     0.203000000
O     6.941000000    -0.460000000     4.151000000
H     7.540000000    -1.069000000     3.719000000
H     6.071000000    -0.733000000     3.861000000
O     1.186000000    -2.015000000     8.989000000
H     0.352000000    -2.056000000     9.457000000
H     0.978000000    -2.314000000     8.104000000
O     4.124000000    -4.169000000     6.660000000
H     3.803000000    -4.593000000     5.864000000
H     3.616000000    -3.360000000     6.722000000
O     0.879000000    -8.304000000     5.327000000
H     1.826000000    -8.234000000     5.447000000
H     0.571000000    -7.398000000     5.313000000
O     3.632000000    -5.546000000    -0.691000000
H     4.129000000    -5.720000000     0.109000000
H     3.330000000    -4.643000000    -0.595000000
