201
-1230.71602
C     1.272000000     3.012000000     4.891000000
H     0.434000000     3.597000000     5.260000000
C     1.607000000     2.947000000     3.507000000
C     2.736000000     2.197000000     3.192000000
H     2.937000000     2.162000000     2.125000000
C     0.756000000     3.502000000     2.332000000
O    -0.442000000     4.242000000     2.917000000
H     0.435000000     2.647000000     1.719000000
O     1.567000000     4.409000000     1.602000000
C     1.260000000     4.438000000     0.290000000
C     2.279000000     3.890000000    -0.526000000
H     3.142000000     3.377000000    -0.110000000
C     2.007000000     3.692000000    -1.890000000
O     2.842000000     2.867000000    -2.600000000
C     0.849000000     4.129000000    -2.495000000
C     0.448000000     3.973000000    -3.999000000
H    -0.385000000     4.596000000    -4.333000000
C    -0.151000000     2.540000000    -4.349000000
C    -1.532000000     2.441000000    -4.379000000
H    -2.128000000     3.333000000    -4.200000000
H     1.318000000     4.129000000    -4.640000000
C    -0.047000000     4.802000000    -1.654000000
H    -0.865000000     5.307000000    -2.161000000
C     0.065000000     4.915000000    -0.270000000
C    -1.146000000     5.477000000     0.457000000
H    -1.669000000     6.116000000    -0.258000000
H    -0.702000000     6.265000000     1.067000000
C    -2.063000000     4.412000000     1.204000000
C    -3.232000000     3.994000000     0.674000000
H    -3.519000000     4.436000000    -0.276000000
C    -1.673000000     3.888000000     2.434000000
C    -2.320000000     2.874000000     3.042000000
H    -2.027000000     2.425000000     3.988000000
C    -3.428000000     2.328000000     2.436000000
O    -3.897000000     1.098000000     2.840000000
C    -3.533000000    -0.129000000     2.187000000
C    -3.062000000    -1.220000000     3.237000000
C    -3.248000000    -2.538000000     2.958000000
H    -3.737000000    -2.783000000     2.018000000
C    -2.390000000    -0.860000000     4.379000000
H    -2.271000000     0.189000000     4.636000000
O    -4.507000000    -0.628000000     1.310000000
H    -2.650000000     0.125000000     1.582000000
C    -3.897000000     2.901000000     1.238000000
C    -5.017000000     2.278000000     0.480000000
H    -5.593000000     3.011000000    -0.088000000
H    -5.784000000     1.970000000     1.194000000
C    -4.529000000     1.165000000    -0.404000000
C    -4.326000000     1.512000000    -1.761000000
H    -4.517000000     2.538000000    -2.065000000
C    -4.437000000    -0.171000000     0.010000000
C    -3.927000000    -1.129000000    -0.917000000
H    -3.822000000    -2.148000000    -0.554000000
C    -3.805000000    -0.811000000    -2.293000000
O    -3.274000000    -1.847000000    -3.019000000
C    -1.911000000    -1.755000000    -3.414000000
C    -1.298000000    -3.170000000    -3.344000000
C    -1.447000000    -3.901000000    -2.142000000
H    -2.133000000    -3.441000000    -1.436000000
C    -0.455000000    -3.638000000    -4.320000000
H    -0.250000000    -2.988000000    -5.167000000
O    -1.825000000    -1.176000000    -4.684000000
H    -1.280000000    -1.157000000    -2.739000000
C    -4.047000000     0.500000000    -2.746000000
C    -3.737000000     0.914000000    -4.147000000
H    -4.304000000     1.795000000    -4.455000000
H    -4.002000000     0.119000000    -4.848000000
C    -2.171000000     1.211000000    -4.355000000
C    -1.336000000     0.092000000    -4.591000000
C     0.036000000     0.205000000    -4.750000000
H     0.566000000    -0.710000000    -5.001000000
C     0.633000000     1.447000000    -4.521000000
O     1.965000000     1.567000000    -4.226000000
C     2.401000000     1.497000000    -2.849000000
H     1.593000000     1.122000000    -2.204000000
C     3.434000000     0.414000000    -2.668000000
C     4.169000000     0.474000000    -1.555000000
H     4.057000000     1.250000000    -0.802000000
C     3.651000000    -0.634000000    -3.605000000
H     3.012000000    -0.803000000    -4.468000000
C     4.665000000    -1.553000000    -3.365000000
O     4.962000000    -2.561000000    -4.254000000
C     5.487000000    -1.443000000    -2.263000000
H     6.186000000    -2.223000000    -1.974000000
C     5.263000000    -0.395000000    -1.401000000
O     6.094000000    -0.349000000    -0.419000000
C     6.116000000     0.642000000     0.514000000
C     5.573000000     0.339000000     1.766000000
H     5.188000000    -0.656000000     1.970000000
C     6.658000000     1.962000000     0.299000000
H     7.049000000     2.280000000    -0.664000000
C     6.531000000     2.927000000     1.266000000
H     6.879000000     3.933000000     1.043000000
C     5.874000000     2.602000000     2.455000000
H     5.776000000     3.430000000     3.152000000
C     5.480000000     1.303000000     2.762000000
O     4.757000000     1.008000000     3.882000000
C     3.546000000     1.573000000     4.161000000
C     3.138000000     1.646000000     5.519000000
H     3.660000000     1.049000000     6.263000000
C     1.998000000     2.379000000     5.879000000
O     1.532000000     2.330000000     7.196000000
C     0.339000000     1.726000000     7.403000000
C     0.104000000     0.469000000     6.833000000
H     0.846000000    -0.117000000     6.297000000
C    -0.690000000     2.387000000     8.061000000
H    -0.554000000     3.384000000     8.472000000
C    -2.001000000     1.842000000     8.089000000
H    -2.764000000     2.418000000     8.605000000
C    -2.226000000     0.562000000     7.547000000
H    -3.214000000     0.111000000     7.505000000
C    -1.133000000    -0.169000000     6.974000000
O    -1.331000000    -1.458000000     6.498000000
C    -1.972000000    -1.783000000     5.300000000
C    -2.153000000    -3.169000000     4.995000000
H    -1.639000000    -3.919000000     5.591000000
C    -2.680000000    -3.565000000     3.778000000
O    -2.618000000    -4.866000000     3.350000000
C    -2.982000000    -5.405000000     2.115000000
C    -2.007000000    -5.304000000     1.136000000
H    -1.115000000    -4.712000000     1.322000000
C    -4.146000000    -6.192000000     1.898000000
H    -4.755000000    -6.447000000     2.761000000
C    -4.370000000    -6.747000000     0.651000000
H    -5.254000000    -7.347000000     0.452000000
C    -3.449000000    -6.609000000    -0.353000000
H    -3.559000000    -7.056000000    -1.338000000
C    -2.287000000    -5.936000000    -0.067000000
O    -1.248000000    -6.027000000    -0.964000000
C    -0.980000000    -5.207000000    -2.077000000
C    -0.121000000    -5.681000000    -3.065000000
H     0.321000000    -6.672000000    -3.007000000
C     0.255000000    -4.841000000    -4.098000000
O     1.203000000    -5.363000000    -4.959000000
C     2.279000000    -4.643000000    -5.483000000
C     2.623000000    -4.752000000    -6.836000000
H     1.970000000    -5.405000000    -7.410000000
C     3.613000000    -3.992000000    -7.412000000
H     3.765000000    -4.001000000    -8.488000000
C     4.492000000    -3.308000000    -6.531000000
H     5.399000000    -2.756000000    -6.767000000
C     4.165000000    -3.207000000    -5.164000000
C     3.030000000    -3.827000000    -4.659000000
H     2.744000000    -3.689000000    -3.619000000
O     4.125000000    -6.288000000     2.875000000
H     4.371000000    -5.442000000     3.251000000
H     3.284000000    -6.126000000     2.449000000
O    -1.781000000   -10.032000000     4.154000000
H    -2.062000000   -10.038000000     3.238000000
H    -1.651000000    -9.106000000     4.358000000
O     1.506000000   -10.784000000     1.055000000
H     0.817000000   -10.194000000     0.749000000
H     1.122000000   -11.227000000     1.813000000
O     6.924000000    -2.993000000     2.847000000
H     6.003000000    -3.142000000     3.064000000
H     7.142000000    -2.170000000     3.283000000
O     3.477000000    -2.452000000     7.449000000
H     2.881000000    -2.822000000     6.797000000
H     3.176000000    -2.816000000     8.281000000
O     4.030000000    -5.769000000    -0.269000000
H     3.453000000    -5.144000000     0.171000000
H     3.542000000    -6.592000000    -0.262000000
O     6.892000000    -7.443000000     2.117000000
H     7.118000000    -6.795000000     1.449000000
H     5.935000000    -7.460000000     2.120000000
O     4.281000000    -8.972000000     3.343000000
H     4.383000000    -9.200000000     4.267000000
H     4.100000000    -8.032000000     3.348000000
O     0.608000000    -7.476000000     0.576000000
H     1.120000000    -6.793000000     1.011000000
H     0.395000000    -7.106000000    -0.281000000
O     3.072000000    -6.768000000     6.320000000
H     3.480000000    -7.632000000     6.378000000
H     3.618000000    -6.208000000     6.871000000
O     3.534000000    -9.222000000     0.566000000
H     3.705000000    -8.869000000     1.439000000
H     2.821000000    -9.848000000     0.697000000
O     1.601000000    -3.180000000     5.559000000
H     1.421000000    -3.315000000     4.629000000
H     1.566000000    -4.057000000     5.940000000
O     5.352000000    -4.520000000     6.025000000
H     5.952000000    -5.214000000     5.753000000
H     5.363000000    -4.556000000     6.982000000
O     4.436000000    -3.662000000     3.411000000
H     4.561000000    -3.689000000     4.360000000
H     3.485000000    -3.658000000     3.295000000
O     6.511000000    -4.881000000     0.510000000
H     5.611000000    -5.161000000     0.345000000
H     6.478000000    -4.461000000     1.370000000
O     1.548000000    -6.578000000     4.031000000
H     2.310000000    -6.562000000     4.611000000
H     1.437000000    -5.668000000     3.755000000
O    -1.271000000    -9.509000000     0.814000000
H    -1.011000000    -8.591000000     0.728000000
H    -2.224000000    -9.481000000     0.898000000
O     0.348000000    -6.654000000     7.174000000
H    -0.184000000    -7.220000000     6.614000000
H     1.235000000    -6.739000000     6.826000000
O    -1.247000000    -7.458000000     4.480000000
H    -1.672000000    -6.725000000     4.034000000
H    -0.318000000    -7.229000000     4.486000000
