201
-1243.96198
C     0.752000000     3.286000000     4.679000000
H    -0.327000000     3.260000000     4.813000000
C     1.323000000     3.634000000     3.443000000
C     2.742000000     3.483000000     3.208000000
H     3.218000000     3.619000000     2.241000000
C     0.471000000     3.834000000     2.151000000
O    -0.815000000     4.428000000     2.542000000
H     0.250000000     2.842000000     1.730000000
O     1.116000000     4.798000000     1.310000000
C     1.007000000     4.600000000    -0.023000000
C     1.953000000     3.927000000    -0.798000000
H     2.829000000     3.554000000    -0.274000000
C     1.733000000     3.577000000    -2.084000000
O     2.737000000     2.965000000    -2.723000000
C     0.610000000     4.056000000    -2.794000000
C     0.404000000     3.766000000    -4.294000000
H    -0.376000000     4.413000000    -4.699000000
C    -0.144000000     2.376000000    -4.496000000
C    -1.486000000     2.047000000    -4.609000000
H    -2.302000000     2.761000000    -4.522000000
H     1.313000000     3.913000000    -4.882000000
C    -0.404000000     4.592000000    -2.027000000
H    -1.294000000     4.910000000    -2.565000000
C    -0.236000000     4.858000000    -0.631000000
C    -1.442000000     5.506000000     0.044000000
H    -1.978000000     6.199000000    -0.609000000
H    -1.195000000     6.206000000     0.844000000
C    -2.296000000     4.418000000     0.725000000
C    -3.438000000     3.861000000     0.066000000
H    -3.724000000     4.147000000    -0.944000000
C    -1.962000000     3.951000000     1.974000000
C    -2.654000000     2.955000000     2.600000000
H    -2.265000000     2.501000000     3.507000000
C    -3.693000000     2.315000000     1.934000000
O    -4.303000000     1.170000000     2.462000000
C    -3.887000000    -0.114000000     1.882000000
C    -3.456000000    -1.156000000     2.892000000
C    -3.677000000    -2.522000000     2.670000000
H    -4.227000000    -2.929000000     1.826000000
C    -2.809000000    -0.862000000     4.088000000
H    -2.596000000     0.198000000     4.197000000
O    -4.843000000    -0.681000000     1.001000000
H    -2.936000000     0.066000000     1.360000000
C    -4.096000000     2.721000000     0.622000000
C    -5.200000000     1.996000000    -0.147000000
H    -5.600000000     2.726000000    -0.854000000
H    -6.006000000     1.641000000     0.500000000
C    -4.678000000     0.786000000    -0.903000000
C    -4.333000000     0.960000000    -2.265000000
H    -4.534000000     1.899000000    -2.774000000
C    -4.522000000    -0.497000000    -0.289000000
C    -4.071000000    -1.568000000    -1.046000000
H    -3.943000000    -2.558000000    -0.615000000
C    -3.570000000    -1.311000000    -2.330000000
O    -2.918000000    -2.418000000    -2.857000000
C    -1.470000000    -2.105000000    -3.086000000
C    -0.612000000    -3.336000000    -2.722000000
C    -0.790000000    -3.934000000    -1.461000000
H    -1.408000000    -3.376000000    -0.763000000
C     0.249000000    -3.910000000    -3.596000000
H     0.333000000    -3.600000000    -4.635000000
O    -1.135000000    -1.585000000    -4.438000000
H    -1.183000000    -1.301000000    -2.392000000
C    -3.739000000    -0.088000000    -2.988000000
C    -3.357000000     0.269000000    -4.457000000
H    -4.017000000     1.064000000    -4.810000000
H    -3.635000000    -0.469000000    -5.213000000
C    -1.865000000     0.690000000    -4.584000000
C    -0.870000000    -0.296000000    -4.675000000
C     0.453000000     0.024000000    -4.698000000
H     1.227000000    -0.738000000    -4.722000000
C     0.766000000     1.380000000    -4.663000000
O     2.091000000     1.575000000    -4.372000000
C     2.466000000     1.582000000    -3.031000000
H     1.658000000     1.234000000    -2.371000000
C     3.640000000     0.693000000    -2.645000000
C     3.914000000     0.651000000    -1.309000000
H     3.597000000     1.410000000    -0.597000000
C     4.209000000    -0.239000000    -3.526000000
H     3.978000000    -0.300000000    -4.586000000
C     5.031000000    -1.289000000    -3.023000000
O     5.465000000    -2.341000000    -3.843000000
C     5.265000000    -1.359000000    -1.645000000
H     5.713000000    -2.229000000    -1.171000000
C     4.733000000    -0.328000000    -0.779000000
O     5.045000000    -0.334000000     0.554000000
C     5.513000000     0.905000000     1.111000000
C     4.972000000     1.370000000     2.310000000
H     4.117000000     0.850000000     2.735000000
C     6.543000000     1.610000000     0.484000000
H     6.976000000     1.271000000    -0.454000000
C     7.091000000     2.769000000     1.076000000
H     7.952000000     3.176000000     0.553000000
C     6.491000000     3.270000000     2.226000000
H     6.835000000     4.216000000     2.637000000
C     5.476000000     2.569000000     2.890000000
O     4.965000000     3.031000000     4.058000000
C     3.536000000     3.159000000     4.291000000
C     2.941000000     2.875000000     5.533000000
H     3.573000000     2.605000000     6.375000000
C     1.556000000     2.876000000     5.725000000
O     0.990000000     2.452000000     6.887000000
C    -0.242000000     1.835000000     6.967000000
C    -0.448000000     0.458000000     6.743000000
H     0.389000000    -0.147000000     6.406000000
C    -1.400000000     2.536000000     7.359000000
H    -1.401000000     3.608000000     7.543000000
C    -2.653000000     1.937000000     7.317000000
H    -3.497000000     2.570000000     7.579000000
C    -2.869000000     0.592000000     6.992000000
H    -3.829000000     0.091000000     6.905000000
C    -1.705000000    -0.150000000     6.681000000
O    -1.746000000    -1.426000000     6.151000000
C    -2.519000000    -1.774000000     5.069000000
C    -2.793000000    -3.091000000     4.867000000
H    -2.628000000    -3.826000000     5.650000000
C    -3.392000000    -3.479000000     3.638000000
O    -3.781000000    -4.814000000     3.464000000
C    -3.311000000    -5.600000000     2.416000000
C    -2.075000000    -5.234000000     1.769000000
H    -1.427000000    -4.474000000     2.198000000
C    -4.165000000    -6.511000000     1.752000000
H    -5.191000000    -6.619000000     2.095000000
C    -3.757000000    -7.169000000     0.609000000
H    -4.405000000    -7.902000000     0.136000000
C    -2.483000000    -6.854000000     0.025000000
H    -2.170000000    -7.355000000    -0.887000000
C    -1.693000000    -5.908000000     0.597000000
O    -0.458000000    -5.744000000     0.059000000
C    -0.192000000    -5.107000000    -1.102000000
C     0.763000000    -5.633000000    -2.001000000
H     1.211000000    -6.578000000    -1.702000000
C     1.089000000    -4.999000000    -3.178000000
O     1.976000000    -5.573000000    -4.053000000
C     2.953000000    -4.871000000    -4.604000000
C     3.369000000    -5.280000000    -5.869000000
H     2.783000000    -6.033000000    -6.390000000
C     4.478000000    -4.645000000    -6.520000000
H     4.799000000    -4.971000000    -7.506000000
C     5.208000000    -3.713000000    -5.774000000
H     6.177000000    -3.427000000    -6.174000000
C     4.687000000    -3.146000000    -4.595000000
C     3.590000000    -3.771000000    -3.986000000
H     3.239000000    -3.398000000    -3.027000000
O     4.659000000    -7.543000000    -3.605000000
H     3.931000000    -7.206000000    -4.126000000
H     4.631000000    -7.033000000    -2.795000000
O     4.534000000    -5.929000000     3.825000000
H     4.345000000    -5.798000000     4.754000000
H     4.299000000    -5.098000000     3.412000000
O     8.571000000    -0.947000000    -0.539000000
H     8.089000000    -0.714000000     0.255000000
H     8.982000000    -1.786000000    -0.331000000
O     5.253000000    -0.337000000     6.265000000
H     4.698000000    -1.071000000     6.002000000
H     6.037000000    -0.423000000     5.721000000
O     0.969000000    -8.237000000     1.424000000
H     0.367000000    -8.303000000     0.683000000
H     0.885000000    -9.076000000     1.878000000
O     6.299000000    -4.927000000     0.516000000
H     5.382000000    -4.656000000     0.493000000
H     6.504000000    -5.156000000    -0.391000000
O     3.415000000    -2.580000000     5.867000000
H     2.594000000    -2.685000000     5.387000000
H     3.212000000    -2.873000000     6.756000000
O     4.041000000    -6.240000000    -1.406000000
H     3.857000000    -5.301000000    -1.421000000
H     3.846000000    -6.508000000    -0.508000000
O     7.980000000    -7.799000000    -0.323000000
H     7.905000000    -8.216000000    -1.181000000
H     7.417000000    -7.027000000    -0.381000000
O     4.478000000    -8.774000000     3.823000000
H     5.085000000    -8.870000000     4.557000000
H     4.336000000    -7.830000000     3.752000000
O     3.203000000    -6.592000000     1.018000000
H     3.277000000    -5.694000000     1.344000000
H     2.447000000    -6.953000000     1.482000000
O     3.090000000    -8.960000000    -0.744000000
H     3.384000000    -8.101000000    -1.045000000
H     2.782000000    -8.809000000     0.150000000
O     1.090000000    -3.946000000     4.663000000
H     1.568000000    -3.929000000     3.834000000
H     0.602000000    -4.769000000     4.641000000
O     7.169000000    -6.305000000     2.832000000
H     6.354000000    -6.590000000     3.246000000
H     6.889000000    -5.723000000     2.126000000
O     4.997000000    -2.559000000     3.685000000
H     4.420000000    -2.264000000     4.390000000
H     4.423000000    -3.048000000     3.095000000
O     7.230000000    -5.266000000    -2.247000000
H     6.860000000    -5.271000000    -3.129000000
H     7.854000000    -4.540000000    -2.252000000
O     0.376000000    -6.843000000     4.504000000
H     1.075000000    -7.116000000     5.098000000
H     0.534000000    -7.342000000     3.702000000
O     8.690000000    -3.911000000     4.350000000
H     9.483000000    -3.715000000     3.850000000
H     7.973000000    -3.732000000     3.741000000
O     7.430000000    -2.735000000     2.267000000
H     6.559000000    -2.470000000     2.563000000
H     7.293000000    -3.058000000     1.377000000
