201
-1221.67897
C     0.923000000     3.055000000     4.075000000
H    -0.156000000     2.969000000     4.170000000
C     1.462000000     3.632000000     2.947000000
C     2.865000000     3.681000000     2.817000000
H     3.271000000     4.106000000     1.903000000
C     0.581000000     4.050000000     1.785000000
O    -0.675000000     4.556000000     2.229000000
H     0.420000000     3.168000000     1.148000000
O     1.188000000     5.009000000     0.911000000
C     1.034000000     4.695000000    -0.431000000
C     2.075000000     4.036000000    -1.082000000
H     3.028000000     3.886000000    -0.582000000
C     1.880000000     3.573000000    -2.377000000
O     2.877000000     2.841000000    -2.883000000
C     0.693000000     3.809000000    -3.111000000
C     0.496000000     3.337000000    -4.524000000
H    -0.231000000     4.007000000    -4.987000000
C     0.114000000     1.803000000    -4.713000000
C    -1.256000000     1.503000000    -4.722000000
H    -2.044000000     2.252000000    -4.735000000
H     1.382000000     3.507000000    -5.140000000
C    -0.382000000     4.407000000    -2.397000000
H    -1.374000000     4.429000000    -2.841000000
C    -0.235000000     4.883000000    -1.087000000
C    -1.371000000     5.522000000    -0.408000000
H    -1.982000000     6.119000000    -1.089000000
H    -0.914000000     6.294000000     0.214000000
C    -2.177000000     4.436000000     0.388000000
C    -3.290000000     3.810000000    -0.217000000
H    -3.590000000     3.964000000    -1.250000000
C    -1.839000000     4.071000000     1.645000000
C    -2.597000000     3.120000000     2.265000000
H    -2.293000000     2.822000000     3.266000000
C    -3.683000000     2.489000000     1.709000000
O    -4.170000000     1.375000000     2.326000000
C    -3.879000000     0.019000000     1.900000000
C    -3.679000000    -1.008000000     3.016000000
C    -3.697000000    -2.360000000     2.794000000
H    -4.043000000    -2.810000000     1.867000000
C    -3.296000000    -0.536000000     4.296000000
H    -3.248000000     0.544000000     4.407000000
O    -4.975000000    -0.477000000     0.967000000
H    -2.903000000     0.041000000     1.395000000
C    -4.069000000     2.795000000     0.446000000
C    -5.249000000     2.088000000    -0.278000000
H    -5.804000000     2.733000000    -0.963000000
H    -5.970000000     1.807000000     0.492000000
C    -4.730000000     0.853000000    -1.026000000
C    -4.266000000     0.822000000    -2.328000000
H    -4.408000000     1.764000000    -2.852000000
C    -4.674000000    -0.350000000    -0.360000000
C    -4.090000000    -1.467000000    -0.943000000
H    -4.045000000    -2.353000000    -0.315000000
C    -3.509000000    -1.432000000    -2.202000000
O    -2.835000000    -2.512000000    -2.777000000
C    -1.378000000    -2.394000000    -2.883000000
C    -0.724000000    -3.644000000    -2.359000000
C    -1.200000000    -4.398000000    -1.256000000
H    -2.105000000    -4.061000000    -0.757000000
C     0.468000000    -4.078000000    -2.880000000
H     0.990000000    -3.447000000    -3.594000000
O    -0.967000000    -2.099000000    -4.218000000
H    -1.036000000    -1.613000000    -2.188000000
C    -3.667000000    -0.271000000    -2.930000000
C    -3.198000000    -0.172000000    -4.376000000
H    -3.843000000     0.473000000    -4.976000000
H    -3.341000000    -1.100000000    -4.934000000
C    -1.686000000     0.158000000    -4.528000000
C    -0.693000000    -0.793000000    -4.455000000
C     0.642000000    -0.490000000    -4.508000000
H     1.372000000    -1.261000000    -4.277000000
C     1.060000000     0.824000000    -4.702000000
O     2.313000000     1.119000000    -4.409000000
C     2.657000000     1.319000000    -3.084000000
H     1.802000000     0.974000000    -2.485000000
C     3.910000000     0.408000000    -2.642000000
C     4.462000000     0.683000000    -1.354000000
H     4.124000000     1.531000000    -0.765000000
C     4.418000000    -0.658000000    -3.485000000
H     3.972000000    -0.866000000    -4.454000000
C     5.367000000    -1.522000000    -2.975000000
O     5.777000000    -2.640000000    -3.727000000
C     5.772000000    -1.333000000    -1.604000000
H     6.478000000    -2.081000000    -1.250000000
C     5.364000000    -0.205000000    -0.849000000
O     5.843000000    -0.100000000     0.400000000
C     6.091000000     1.123000000     0.929000000
C     5.431000000     1.473000000     2.101000000
H     4.733000000     0.743000000     2.502000000
C     6.887000000     2.006000000     0.241000000
H     7.407000000     1.678000000    -0.656000000
C     7.065000000     3.284000000     0.730000000
H     7.768000000     4.015000000     0.338000000
C     6.471000000     3.653000000     1.941000000
H     6.444000000     4.624000000     2.427000000
C     5.640000000     2.752000000     2.618000000
O     4.999000000     3.140000000     3.748000000
C     3.636000000     3.156000000     3.906000000
C     3.043000000     2.704000000     5.073000000
H     3.759000000     2.395000000     5.831000000
C     1.667000000     2.729000000     5.128000000
O     1.062000000     2.221000000     6.266000000
C    -0.247000000     1.929000000     6.570000000
C    -0.762000000     0.637000000     6.325000000
H    -0.199000000    -0.067000000     5.718000000
C    -0.950000000     2.814000000     7.368000000
H    -0.411000000     3.728000000     7.603000000
C    -2.198000000     2.479000000     7.757000000
H    -2.660000000     3.211000000     8.416000000
C    -2.781000000     1.255000000     7.468000000
H    -3.819000000     1.081000000     7.740000000
C    -2.070000000     0.283000000     6.719000000
O    -2.645000000    -0.923000000     6.500000000
C    -2.988000000    -1.417000000     5.295000000
C    -3.005000000    -2.757000000     5.115000000
H    -2.866000000    -3.439000000     5.950000000
C    -3.401000000    -3.224000000     3.844000000
O    -3.425000000    -4.619000000     3.785000000
C    -3.551000000    -5.353000000     2.625000000
C    -2.402000000    -5.566000000     1.872000000
H    -1.436000000    -5.247000000     2.254000000
C    -4.772000000    -5.728000000     2.148000000
H    -5.636000000    -5.433000000     2.738000000
C    -4.864000000    -6.492000000     0.953000000
H    -5.832000000    -6.881000000     0.649000000
C    -3.674000000    -6.716000000     0.220000000
H    -3.767000000    -7.179000000    -0.759000000
C    -2.426000000    -6.296000000     0.708000000
O    -1.273000000    -6.445000000    -0.002000000
C    -0.696000000    -5.643000000    -0.916000000
C     0.475000000    -6.116000000    -1.578000000
H     0.897000000    -7.091000000    -1.348000000
C     1.064000000    -5.321000000    -2.551000000
O     2.302000000    -5.776000000    -3.042000000
C     3.095000000    -5.057000000    -3.889000000
C     2.835000000    -5.067000000    -5.248000000
H     2.084000000    -5.750000000    -5.636000000
C     3.660000000    -4.336000000    -6.077000000
H     3.443000000    -4.328000000    -7.142000000
C     4.646000000    -3.516000000    -5.565000000
H     5.181000000    -2.847000000    -6.234000000
C     4.874000000    -3.477000000    -4.181000000
C     4.155000000    -4.323000000    -3.325000000
H     4.400000000    -4.349000000    -2.266000000
O     8.334000000    -5.073000000     1.376000000
H     8.528000000    -5.978000000     1.131000000
H     9.153000000    -4.745000000     1.747000000
O     8.249000000    -2.886000000     4.962000000
H     8.435000000    -3.697000000     5.435000000
H     8.718000000    -2.210000000     5.451000000
O     2.080000000    -7.458000000     2.196000000
H     2.382000000    -7.403000000     3.102000000
H     2.141000000    -6.560000000     1.869000000
O     4.271000000    -0.668000000     6.829000000
H     3.408000000    -0.710000000     6.418000000
H     4.862000000    -1.057000000     6.185000000
O     5.885000000    -4.463000000    -0.197000000
H     5.218000000    -3.827000000     0.062000000
H     6.532000000    -4.433000000     0.508000000
O     5.653000000    -4.758000000     2.901000000
H     6.514000000    -4.644000000     2.500000000
H     5.087000000    -4.146000000     2.431000000
O     4.999000000    -6.870000000    -0.906000000
H     4.209000000    -6.789000000    -0.370000000
H     5.477000000    -6.055000000    -0.752000000
O     2.171000000    -5.095000000     0.871000000
H     2.909000000    -4.491000000     0.957000000
H     1.461000000    -4.557000000     0.520000000
O     4.997000000    -6.039000000     6.035000000
H     5.105000000    -6.231000000     6.967000000
H     5.574000000    -5.292000000     5.875000000
O    -0.150000000    -2.383000000     3.340000000
H     0.045000000    -1.609000000     2.812000000
H     0.361000000    -2.262000000     4.140000000
O     1.611000000    -2.897000000     8.336000000
H     2.237000000    -2.669000000     9.022000000
H     2.084000000    -2.742000000     7.518000000
O     5.074000000    -7.285000000     2.881000000
H     5.595000000    -6.496000000     3.029000000
H     4.178000000    -6.964000000     2.776000000
O    -0.175000000    -4.798000000     5.037000000
H    -0.480000000    -4.142000000     4.411000000
H     0.683000000    -5.064000000     4.706000000
O     5.716000000    -2.120000000     5.094000000
H     6.623000000    -2.405000000     4.986000000
H     5.347000000    -2.154000000     4.211000000
O     9.997000000    -2.423000000     1.176000000
H     9.282000000    -2.097000000     1.722000000
H    10.257000000    -3.247000000     1.589000000
O     9.218000000     0.004000000     3.436000000
H     9.386000000    -0.372000000     4.300000000
H     8.822000000    -0.711000000     2.937000000
O     7.376000000    -1.689000000     2.105000000
H     6.976000000    -1.223000000     1.370000000
H     6.727000000    -1.631000000     2.806000000
O     2.445000000    -2.536000000     5.136000000
H     2.615000000    -3.437000000     5.410000000
H     3.221000000    -2.287000000     4.635000000
O     2.758000000    -5.377000000     4.133000000
H     3.661000000    -5.079000000     4.020000000
H     2.834000000    -6.185000000     4.640000000
