201
-1260.95482
C     1.520000000     4.043000000     3.114000000
H     0.722000000     4.767000000     3.260000000
C     1.995000000     3.653000000     1.871000000
C     3.000000000     2.709000000     1.746000000
H     3.230000000     2.238000000     0.794000000
C     1.298000000     3.976000000     0.615000000
O     0.149000000     4.744000000     0.981000000
H     0.908000000     3.029000000     0.212000000
O     2.053000000     4.525000000    -0.447000000
C     1.800000000     4.158000000    -1.741000000
C     2.729000000     3.379000000    -2.373000000
H     3.685000000     3.185000000    -1.893000000
C     2.439000000     2.707000000    -3.559000000
O     3.250000000     1.685000000    -3.851000000
C     1.192000000     2.904000000    -4.183000000
C     0.747000000     2.111000000    -5.475000000
H     0.129000000     2.721000000    -6.137000000
C     0.081000000     0.826000000    -5.117000000
C    -1.318000000     0.792000000    -4.864000000
H    -1.817000000     1.739000000    -5.053000000
H     1.594000000     1.852000000    -6.114000000
C     0.265000000     3.725000000    -3.541000000
H    -0.723000000     3.860000000    -3.975000000
C     0.612000000     4.434000000    -2.389000000
C    -0.482000000     5.323000000    -1.742000000
H    -1.114000000     5.666000000    -2.564000000
H     0.052000000     6.149000000    -1.267000000
C    -1.431000000     4.563000000    -0.794000000
C    -2.626000000     3.957000000    -1.261000000
H    -2.828000000     4.089000000    -2.321000000
C    -1.083000000     4.357000000     0.570000000
C    -1.924000000     3.669000000     1.401000000
H    -1.582000000     3.511000000     2.421000000
C    -3.051000000     3.098000000     0.974000000
O    -3.657000000     2.373000000     1.963000000
C    -3.615000000     0.943000000     1.857000000
C    -3.571000000     0.275000000     3.199000000
C    -3.852000000    -1.063000000     3.335000000
H    -4.226000000    -1.771000000     2.599000000
C    -2.930000000     0.991000000     4.276000000
H    -2.714000000     2.056000000     4.256000000
O    -4.712000000     0.545000000     1.086000000
H    -2.665000000     0.697000000     1.361000000
C    -3.424000000     3.227000000    -0.362000000
C    -4.785000000     2.791000000    -0.822000000
H    -5.194000000     3.442000000    -1.597000000
H    -5.422000000     2.920000000     0.056000000
C    -4.590000000     1.329000000    -1.231000000
C    -4.279000000     1.041000000    -2.594000000
H    -4.253000000     1.793000000    -3.379000000
C    -4.574000000     0.291000000    -0.273000000
C    -4.257000000    -1.014000000    -0.598000000
H    -4.217000000    -1.794000000     0.158000000
C    -3.933000000    -1.288000000    -1.924000000
O    -3.508000000    -2.587000000    -2.207000000
C    -2.097000000    -2.701000000    -2.088000000
C    -1.660000000    -3.931000000    -1.412000000
C    -2.570000000    -4.569000000    -0.579000000
H    -3.627000000    -4.324000000    -0.646000000
C    -0.336000000    -4.415000000    -1.426000000
H     0.314000000    -3.858000000    -2.096000000
O    -1.556000000    -2.708000000    -3.410000000
H    -1.721000000    -1.819000000    -1.550000000
C    -3.898000000    -0.291000000    -2.889000000
C    -3.359000000    -0.563000000    -4.278000000
H    -3.899000000     0.138000000    -4.917000000
H    -3.694000000    -1.543000000    -4.624000000
C    -1.896000000    -0.426000000    -4.414000000
C    -1.087000000    -1.486000000    -3.956000000
C     0.335000000    -1.452000000    -4.173000000
H     0.939000000    -2.303000000    -3.869000000
C     0.927000000    -0.319000000    -4.835000000
O     2.266000000    -0.181000000    -4.812000000
C     2.822000000     0.367000000    -3.583000000
H     2.149000000     0.446000000    -2.717000000
C     4.024000000    -0.444000000    -3.152000000
C     5.068000000     0.042000000    -2.351000000
H     5.092000000     1.080000000    -2.029000000
C     3.992000000    -1.809000000    -3.376000000
H     3.227000000    -2.215000000    -4.033000000
C     4.952000000    -2.632000000    -2.911000000
O     5.018000000    -4.016000000    -3.245000000
C     5.999000000    -2.152000000    -2.128000000
H     6.758000000    -2.837000000    -1.760000000
C     6.015000000    -0.807000000    -1.817000000
O     7.025000000    -0.274000000    -1.091000000
C     6.829000000     0.567000000    -0.027000000
C     5.860000000     0.352000000     0.879000000
H     5.194000000    -0.504000000     0.809000000
C     7.707000000     1.698000000     0.197000000
H     8.531000000     1.813000000    -0.502000000
C     7.526000000     2.639000000     1.204000000
H     8.217000000     3.478000000     1.184000000
C     6.449000000     2.440000000     1.991000000
H     6.234000000     3.115000000     2.815000000
C     5.613000000     1.332000000     1.881000000
O     4.549000000     1.143000000     2.698000000
C     3.607000000     2.156000000     2.851000000
C     3.130000000     2.507000000     4.109000000
H     3.446000000     1.962000000     4.995000000
C     2.090000000     3.379000000     4.205000000
O     1.729000000     3.872000000     5.410000000
C     0.512000000     3.625000000     5.947000000
C    -0.237000000     2.447000000     5.716000000
H     0.042000000     1.681000000     4.996000000
C     0.100000000     4.503000000     6.953000000
H     0.740000000     5.379000000     7.015000000
C    -0.988000000     4.281000000     7.739000000
H    -1.313000000     4.971000000     8.514000000
C    -1.769000000     3.130000000     7.487000000
H    -2.621000000     2.930000000     8.132000000
C    -1.399000000     2.236000000     6.533000000
O    -2.080000000     1.041000000     6.539000000
C    -2.565000000     0.343000000     5.432000000
C    -2.978000000    -1.010000000     5.572000000
H    -2.778000000    -1.507000000     6.518000000
C    -3.584000000    -1.739000000     4.534000000
O    -3.807000000    -3.029000000     4.795000000
C    -4.229000000    -3.963000000     3.862000000
C    -3.335000000    -4.631000000     3.036000000
H    -2.263000000    -4.451000000     3.008000000
C    -5.575000000    -4.111000000     3.591000000
H    -6.262000000    -3.527000000     4.198000000
C    -6.089000000    -4.917000000     2.595000000
H    -7.167000000    -5.048000000     2.541000000
C    -5.207000000    -5.574000000     1.735000000
H    -5.712000000    -6.309000000     1.113000000
C    -3.850000000    -5.491000000     1.948000000
O    -2.932000000    -6.182000000     1.174000000
C    -2.097000000    -5.564000000     0.340000000
C    -0.770000000    -5.972000000     0.383000000
H    -0.485000000    -6.713000000     1.125000000
C     0.138000000    -5.421000000    -0.560000000
O     1.377000000    -5.931000000    -0.717000000
C     2.100000000    -5.836000000    -1.894000000
C     1.782000000    -6.626000000    -3.004000000
H     0.970000000    -7.341000000    -2.899000000
C     2.540000000    -6.518000000    -4.188000000
H     2.227000000    -7.066000000    -5.074000000
C     3.664000000    -5.722000000    -4.223000000
H     4.075000000    -5.558000000    -5.216000000
C     3.927000000    -4.871000000    -3.203000000
C     3.185000000    -4.976000000    -1.971000000
H     3.439000000    -4.290000000    -1.168000000
O     6.146000000    -4.967000000    -0.218000000
H     5.233000000    -5.114000000     0.029000000
H     6.601000000    -5.762000000     0.061000000
O    -1.526000000    -4.102000000     6.438000000
H    -1.073000000    -3.612000000     5.752000000
H    -1.226000000    -3.704000000     7.255000000
O     1.551000000    -0.586000000     5.796000000
H     1.939000000     0.203000000     6.174000000
H     2.171000000    -0.858000000     5.120000000
O     6.348000000    -3.085000000     1.605000000
H     5.442000000    -2.996000000     1.900000000
H     6.318000000    -3.780000000     0.948000000
O     4.636000000    -3.173000000     4.812000000
H     5.047000000    -2.421000000     5.239000000
H     4.026000000    -2.787000000     4.183000000
O     6.397000000    -7.389000000     1.658000000
H     6.312000000    -6.740000000     2.356000000
H     6.162000000    -8.219000000     2.072000000
O     2.999000000    -5.059000000     3.151000000
H     2.080000000    -5.306000000     3.252000000
H     2.972000000    -4.219000000     2.693000000
O     0.780000000    -5.470000000     4.854000000
H     0.210000000    -4.718000000     5.016000000
H     0.266000000    -6.226000000     5.136000000
O     3.635000000    -6.977000000     5.409000000
H     3.649000000    -6.459000000     4.604000000
H     4.133000000    -6.456000000     6.038000000
O    -0.151000000    -2.789000000     4.469000000
H     0.757000000    -2.549000000     4.284000000
H    -0.647000000    -2.438000000     3.730000000
O     4.075000000    -2.916000000     8.779000000
H     5.001000000    -3.111000000     8.919000000
H     3.760000000    -3.632000000     8.228000000
O     5.780000000    -5.689000000     3.706000000
H     4.860000000    -5.430000000     3.749000000
H     6.247000000    -4.992000000     4.167000000
O     9.229000000    -3.381000000     3.255000000
H     9.040000000    -3.097000000     4.150000000
H     8.518000000    -3.011000000     2.732000000
O     3.577000000    -7.750000000     1.859000000
H     2.778000000    -8.274000000     1.803000000
H     3.325000000    -6.983000000     2.374000000
O     4.338000000    -0.723000000     6.275000000
H     3.646000000    -0.984000000     6.882000000
H     3.906000000    -0.681000000     5.422000000
O     2.965000000    -4.535000000     6.552000000
H     3.761000000    -4.282000000     6.085000000
H     2.429000000    -4.974000000     5.891000000
O     7.506000000    -1.343000000     3.562000000
H     6.941000000    -1.652000000     2.853000000
H     7.972000000    -0.596000000     3.187000000
O     6.369000000     0.922000000     5.385000000
H     5.633000000     0.445000000     5.767000000
H     6.777000000     0.295000000     4.787000000
O     0.283000000    -2.059000000     7.799000000
H     0.102000000    -1.277000000     8.320000000
H     0.544000000    -1.721000000     6.942000000
