201
-1245.36924
C    -2.624000000    -3.119000000    -3.630000000
H    -2.741000000    -2.238000000    -4.255000000
C    -2.892000000    -3.135000000    -2.272000000
C    -2.731000000    -4.365000000    -1.589000000
H    -2.824000000    -4.411000000    -0.507000000
C    -3.385000000    -1.880000000    -1.696000000
O    -3.868000000    -0.902000000    -2.721000000
H    -2.440000000    -1.572000000    -1.225000000
O    -4.394000000    -2.082000000    -0.690000000
C    -4.394000000    -1.399000000     0.480000000
C    -3.755000000    -2.010000000     1.550000000
H    -3.182000000    -2.913000000     1.352000000
C    -3.651000000    -1.343000000     2.715000000
O    -2.830000000    -1.968000000     3.640000000
C    -4.037000000     0.016000000     2.847000000
C    -3.773000000     0.740000000     4.147000000
H    -4.505000000     1.510000000     4.400000000
C    -2.466000000     1.444000000     4.106000000
C    -2.373000000     2.734000000     3.570000000
H    -3.215000000     3.139000000     3.015000000
H    -3.872000000     0.082000000     5.013000000
C    -4.716000000     0.629000000     1.788000000
H    -5.050000000     1.660000000     1.867000000
C    -4.809000000    -0.076000000     0.554000000
C    -5.346000000     0.562000000    -0.716000000
H    -6.033000000     1.348000000    -0.396000000
H    -5.917000000    -0.025000000    -1.438000000
C    -4.279000000     1.230000000    -1.611000000
C    -4.015000000     2.602000000    -1.448000000
H    -4.529000000     3.222000000    -0.717000000
C    -3.583000000     0.408000000    -2.518000000
C    -2.574000000     0.969000000    -3.223000000
H    -2.164000000     0.332000000    -4.003000000
C    -2.298000000     2.307000000    -3.059000000
O    -1.299000000     2.812000000    -3.857000000
C    -0.027000000     2.896000000    -3.283000000
C     1.095000000     2.382000000    -4.195000000
C     2.306000000     3.027000000    -4.254000000
H     2.378000000     4.016000000    -3.811000000
C     0.820000000     1.133000000    -4.772000000
H    -0.130000000     0.617000000    -4.652000000
O     0.274000000     4.231000000    -2.764000000
H     0.086000000     2.101000000    -2.532000000
C    -3.030000000     3.172000000    -2.265000000
C    -2.597000000     4.576000000    -2.053000000
H    -3.444000000     5.131000000    -1.644000000
H    -2.226000000     4.956000000    -3.007000000
C    -1.431000000     4.672000000    -1.071000000
C    -1.726000000     4.703000000     0.300000000
H    -2.764000000     4.686000000     0.621000000
C    -0.102000000     4.595000000    -1.473000000
C     0.986000000     4.671000000    -0.622000000
H     1.968000000     4.511000000    -1.059000000
C     0.718000000     4.705000000     0.727000000
O     1.711000000     4.444000000     1.611000000
C     1.780000000     3.122000000     2.304000000
C     3.175000000     2.515000000     2.188000000
C     3.885000000     2.579000000     0.974000000
H     3.535000000     3.042000000     0.055000000
C     3.727000000     1.803000000     3.322000000
H     3.203000000     1.641000000     4.261000000
O     1.276000000     3.179000000     3.676000000
H     1.160000000     2.399000000     1.754000000
C    -0.679000000     4.701000000     1.206000000
C    -0.922000000     4.685000000     2.679000000
H    -1.832000000     5.270000000     2.826000000
H    -0.220000000     5.340000000     3.201000000
C    -1.139000000     3.356000000     3.366000000
C    -0.006000000     2.743000000     3.967000000
C    -0.065000000     1.437000000     4.513000000
H     0.770000000     0.879000000     4.928000000
C    -1.345000000     0.804000000     4.602000000
O    -1.329000000    -0.538000000     4.903000000
C    -1.536000000    -1.453000000     3.756000000
H    -1.278000000    -0.918000000     2.831000000
C    -0.428000000    -2.539000000     3.755000000
C    -0.696000000    -3.793000000     3.188000000
H    -1.555000000    -4.022000000     2.562000000
C     0.786000000    -2.373000000     4.422000000
H     1.049000000    -1.431000000     4.894000000
C     1.709000000    -3.382000000     4.537000000
O     2.907000000    -3.278000000     5.235000000
C     1.447000000    -4.592000000     3.913000000
H     2.200000000    -5.368000000     4.030000000
C     0.255000000    -4.811000000     3.226000000
O     0.119000000    -5.997000000     2.547000000
C    -0.990000000    -6.412000000     1.810000000
C    -1.008000000    -6.341000000     0.419000000
H    -0.088000000    -6.010000000    -0.054000000
C    -2.082000000    -7.028000000     2.497000000
H    -1.987000000    -7.309000000     3.542000000
C    -3.172000000    -7.486000000     1.783000000
H    -4.046000000    -7.927000000     2.254000000
C    -3.140000000    -7.449000000     0.385000000
H    -3.989000000    -7.900000000    -0.122000000
C    -2.076000000    -6.841000000    -0.289000000
O    -2.134000000    -6.771000000    -1.675000000
C    -2.368000000    -5.543000000    -2.340000000
C    -1.991000000    -5.454000000    -3.715000000
H    -1.536000000    -6.356000000    -4.117000000
C    -2.144000000    -4.214000000    -4.363000000
O    -1.839000000    -4.105000000    -5.742000000
C    -1.318000000    -2.872000000    -6.226000000
C    -0.115000000    -2.388000000    -5.711000000
H     0.433000000    -2.997000000    -4.997000000
C    -1.880000000    -2.137000000    -7.326000000
H    -2.815000000    -2.377000000    -7.825000000
C    -1.309000000    -0.990000000    -7.804000000
H    -1.658000000    -0.440000000    -8.674000000
C    -0.083000000    -0.589000000    -7.375000000
H     0.380000000     0.212000000    -7.946000000
C     0.527000000    -1.308000000    -6.312000000
O     1.765000000    -0.805000000    -5.887000000
C     1.900000000     0.578000000    -5.482000000
C     3.135000000     1.180000000    -5.535000000
H     3.912000000     0.575000000    -5.997000000
C     3.353000000     2.450000000    -4.954000000
O     4.684000000     2.916000000    -4.920000000
C     5.219000000     3.343000000    -3.659000000
C     5.333000000     2.464000000    -2.638000000
H     5.238000000     1.414000000    -2.904000000
C     5.421000000     4.713000000    -3.412000000
H     5.409000000     5.362000000    -4.284000000
C     5.848000000     5.136000000    -2.122000000
H     5.939000000     6.211000000    -1.991000000
C     6.155000000     4.152000000    -1.157000000
H     6.441000000     4.540000000    -0.183000000
C     5.672000000     2.867000000    -1.320000000
O     5.877000000     1.923000000    -0.368000000
C     5.180000000     1.974000000     0.859000000
C     5.750000000     1.322000000     1.951000000
H     6.778000000     0.990000000     1.827000000
C     5.010000000     1.273000000     3.119000000
O     5.641000000     0.540000000     4.093000000
C     4.951000000    -0.221000000     4.991000000
C     5.277000000    -0.087000000     6.335000000
H     5.998000000     0.662000000     6.654000000
C     4.616000000    -0.891000000     7.308000000
H     5.010000000    -0.777000000     8.315000000
C     3.796000000    -1.926000000     6.920000000
H     3.320000000    -2.594000000     7.634000000
C     3.538000000    -2.111000000     5.614000000
C     4.059000000    -1.259000000     4.644000000
H     3.955000000    -1.442000000     3.578000000
O     3.608000000    -0.652000000    -0.620000000
H     3.830000000    -0.934000000    -1.508000000
H     2.682000000    -0.415000000    -0.669000000
O     6.320000000    -6.180000000    -4.860000000
H     6.017000000    -6.499000000    -4.010000000
H     5.861000000    -5.348000000    -4.981000000
O     6.698000000    -3.209000000    -2.110000000
H     7.184000000    -3.601000000    -1.384000000
H     5.806000000    -3.539000000    -2.007000000
O     4.837000000    -6.226000000     4.387000000
H     5.749000000    -6.147000000     4.666000000
H     4.736000000    -5.558000000     3.708000000
O     2.751000000    -9.960000000    -0.854000000
H     2.435000000   -10.669000000    -1.415000000
H     3.223000000    -9.377000000    -1.449000000
O     4.181000000    -4.468000000     2.309000000
H     4.668000000    -3.703000000     2.004000000
H     3.296000000    -4.340000000     1.969000000
O     4.483000000    -4.110000000    -4.881000000
H     4.682000000    -3.561000000    -4.123000000
H     3.549000000    -4.303000000    -4.800000000
O     5.620000000    -6.387000000    -2.010000000
H     5.929000000    -6.911000000    -1.271000000
H     5.009000000    -5.761000000    -1.621000000
O     1.997000000    -6.941000000    -1.326000000
H     2.298000000    -7.009000000    -0.420000000
H     1.723000000    -6.028000000    -1.420000000
O     2.102000000    -8.427000000     3.326000000
H     1.319000000    -7.960000000     3.614000000
H     2.462000000    -7.882000000     2.625000000
O     0.340000000    -8.981000000    -2.581000000
H     0.428000000    -8.841000000    -3.524000000
H     0.979000000    -8.385000000    -2.190000000
O     2.443000000    -7.178000000    -4.940000000
H     1.594000000    -7.536000000    -5.201000000
H     2.785000000    -6.769000000    -5.735000000
O     3.920000000    -8.686000000    -3.353000000
H     3.308000000    -8.166000000    -3.874000000
H     4.628000000    -8.079000000    -3.138000000
O     3.097000000    -6.706000000     1.331000000
H     2.472000000    -6.038000000     1.049000000
H     3.833000000    -6.210000000     1.687000000
O     3.894000000    -1.929000000    -3.143000000
H     3.762000000    -1.261000000    -3.816000000
H     3.076000000    -2.425000000    -3.133000000
O     4.402000000    -4.128000000    -0.995000000
H     4.502000000    -3.610000000    -0.196000000
H     3.462000000    -4.298000000    -1.055000000
O     5.041000000    -2.085000000     1.228000000
H     5.828000000    -1.543000000     1.175000000
H     4.496000000    -1.788000000     0.499000000
O     8.163000000    -5.045000000    -0.087000000
H     7.716000000    -5.590000000     0.561000000
H     9.076000000    -5.328000000    -0.048000000
O     1.810000000    -4.648000000    -4.179000000
H     1.715000000    -5.601000000    -4.185000000
H     1.755000000    -4.408000000    -3.254000000
