201
-1253.30095
C     3.260000000     3.164000000     3.094000000
H     2.389000000     3.342000000     3.721000000
C     3.220000000     3.359000000     1.714000000
C     4.324000000     3.249000000     0.907000000
H     4.319000000     3.292000000    -0.179000000
C     1.860000000     3.630000000     1.092000000
O     1.019000000     4.386000000     1.959000000
H     1.305000000     2.715000000     0.838000000
O     2.079000000     4.309000000    -0.151000000
C     1.328000000     4.007000000    -1.258000000
C     1.876000000     3.256000000    -2.252000000
H     2.914000000     2.942000000    -2.177000000
C     1.120000000     2.988000000    -3.459000000
O     1.687000000     2.027000000    -4.306000000
C    -0.221000000     3.430000000    -3.559000000
C    -1.053000000     2.934000000    -4.747000000
H    -1.752000000     3.752000000    -4.934000000
C    -1.818000000     1.645000000    -4.312000000
C    -3.140000000     1.650000000    -3.872000000
H    -3.724000000     2.566000000    -3.911000000
H    -0.488000000     2.801000000    -5.672000000
C    -0.721000000     4.269000000    -2.550000000
H    -1.731000000     4.662000000    -2.639000000
C     0.054000000     4.574000000    -1.406000000
C    -0.614000000     5.415000000    -0.362000000
H    -1.423000000     6.081000000    -0.667000000
H     0.046000000     6.164000000     0.081000000
C    -1.152000000     4.593000000     0.831000000
C    -2.471000000     4.251000000     0.843000000
H    -3.223000000     4.466000000     0.088000000
C    -0.337000000     4.161000000     1.906000000
C    -0.835000000     3.368000000     2.914000000
H    -0.158000000     2.976000000     3.669000000
C    -2.192000000     2.885000000     2.848000000
O    -2.560000000     1.858000000     3.767000000
C    -2.557000000     0.528000000     3.227000000
C    -1.886000000    -0.464000000     4.219000000
C    -2.042000000    -1.829000000     3.966000000
H    -2.853000000    -2.212000000     3.352000000
C    -0.840000000     0.012000000     4.986000000
H    -0.679000000     1.068000000     5.187000000
O    -3.889000000     0.138000000     2.810000000
H    -2.066000000     0.593000000     2.245000000
C    -2.965000000     3.376000000     1.810000000
C    -4.408000000     2.821000000     1.690000000
H    -5.015000000     3.650000000     1.319000000
H    -4.925000000     2.628000000     2.632000000
C    -4.421000000     1.559000000     0.926000000
C    -4.672000000     1.655000000    -0.439000000
H    -4.688000000     2.634000000    -0.912000000
C    -4.313000000     0.297000000     1.524000000
C    -4.469000000    -0.873000000     0.733000000
H    -4.329000000    -1.841000000     1.207000000
C    -4.903000000    -0.758000000    -0.554000000
O    -4.913000000    -1.901000000    -1.247000000
C    -3.597000000    -2.277000000    -1.776000000
C    -3.089000000    -3.650000000    -1.540000000
C    -3.697000000    -4.442000000    -0.587000000
H    -4.636000000    -4.163000000    -0.115000000
C    -1.917000000    -4.110000000    -2.181000000
H    -1.388000000    -3.634000000    -3.002000000
O    -3.689000000    -1.976000000    -3.168000000
H    -2.848000000    -1.608000000    -1.327000000
C    -4.945000000     0.476000000    -1.218000000
C    -5.070000000     0.555000000    -2.763000000
H    -5.666000000     1.460000000    -2.896000000
H    -5.603000000    -0.259000000    -3.260000000
C    -3.752000000     0.468000000    -3.443000000
C    -3.067000000    -0.801000000    -3.553000000
C    -1.748000000    -0.756000000    -4.020000000
H    -1.305000000    -1.748000000    -4.032000000
C    -1.112000000     0.422000000    -4.372000000
O     0.192000000     0.309000000    -4.820000000
C     1.308000000     0.662000000    -3.901000000
H     0.930000000     0.576000000    -2.872000000
C     2.543000000    -0.245000000    -4.040000000
C     3.780000000     0.154000000    -3.547000000
H     3.928000000     1.208000000    -3.325000000
C     2.401000000    -1.526000000    -4.544000000
H     1.435000000    -1.781000000    -4.972000000
C     3.382000000    -2.475000000    -4.321000000
O     3.198000000    -3.681000000    -4.917000000
C     4.619000000    -2.104000000    -3.794000000
H     5.434000000    -2.806000000    -3.635000000
C     4.782000000    -0.819000000    -3.496000000
O     5.941000000    -0.404000000    -2.791000000
C     6.272000000     0.861000000    -2.441000000
C     6.370000000     1.065000000    -1.088000000
H     6.180000000     0.176000000    -0.492000000
C     6.486000000     1.902000000    -3.363000000
H     6.615000000     1.730000000    -4.428000000
C     6.854000000     3.150000000    -2.881000000
H     7.148000000     4.020000000    -3.462000000
C     6.898000000     3.384000000    -1.480000000
H     7.101000000     4.391000000    -1.127000000
C     6.666000000     2.374000000    -0.601000000
O     6.711000000     2.697000000     0.758000000
C     5.571000000     2.912000000     1.499000000
C     5.609000000     2.835000000     2.938000000
H     6.468000000     2.334000000     3.378000000
C     4.480000000     2.928000000     3.727000000
O     4.522000000     2.493000000     5.024000000
C     3.407000000     2.210000000     5.809000000
C     2.715000000     1.058000000     5.570000000
H     2.851000000     0.348000000     4.758000000
C     3.038000000     3.065000000     6.879000000
H     3.617000000     3.946000000     7.147000000
C     1.941000000     2.804000000     7.679000000
H     1.707000000     3.380000000     8.571000000
C     1.299000000     1.555000000     7.444000000
H     0.517000000     1.295000000     8.153000000
C     1.689000000     0.688000000     6.428000000
O     1.065000000    -0.535000000     6.358000000
C    -0.060000000    -0.896000000     5.657000000
C    -0.237000000    -2.206000000     5.486000000
H     0.458000000    -2.823000000     6.051000000
C    -1.295000000    -2.756000000     4.713000000
O    -1.346000000    -4.099000000     4.659000000
C    -2.415000000    -4.823000000     4.157000000
C    -2.505000000    -5.156000000     2.812000000
H    -1.674000000    -4.906000000     2.158000000
C    -3.485000000    -5.058000000     4.980000000
H    -3.391000000    -4.714000000     6.007000000
C    -4.597000000    -5.700000000     4.496000000
H    -5.519000000    -5.727000000     5.072000000
C    -4.583000000    -6.272000000     3.157000000
H    -5.351000000    -6.895000000     2.706000000
C    -3.507000000    -5.971000000     2.302000000
O    -3.623000000    -6.270000000     0.990000000
C    -3.042000000    -5.523000000    -0.040000000
C    -1.847000000    -5.892000000    -0.496000000
H    -1.259000000    -6.721000000    -0.112000000
C    -1.347000000    -5.250000000    -1.656000000
O    -0.193000000    -5.823000000    -2.231000000
C     0.350000000    -5.509000000    -3.545000000
C    -0.210000000    -6.103000000    -4.703000000
H    -1.131000000    -6.649000000    -4.519000000
C     0.333000000    -5.821000000    -5.970000000
H    -0.205000000    -6.030000000    -6.891000000
C     1.442000000    -4.873000000    -6.053000000
H     1.906000000    -4.541000000    -6.978000000
C     1.979000000    -4.302000000    -4.864000000
C     1.471000000    -4.734000000    -3.618000000
H     1.976000000    -4.306000000    -2.756000000
O     0.746000000    -8.397000000    -2.372000000
H     0.500000000    -7.516000000    -2.087000000
H     0.610000000    -8.945000000    -1.599000000
O     7.534000000    -5.287000000     2.006000000
H     6.985000000    -4.533000000     1.788000000
H     6.918000000    -6.014000000     2.094000000
O     4.144000000    -6.134000000     1.020000000
H     3.338000000    -5.712000000     0.723000000
H     4.646000000    -6.282000000     0.219000000
O     3.306000000    -3.525000000     3.786000000
H     3.502000000    -4.460000000     3.848000000
H     3.222000000    -3.238000000     4.695000000
O     0.959000000    -5.005000000     2.689000000
H     1.230000000    -5.205000000     1.793000000
H     1.504000000    -4.261000000     2.944000000
O     3.247000000    -7.337000000    -3.845000000
H     2.932000000    -7.759000000    -3.045000000
H     3.694000000    -6.548000000    -3.539000000
O     4.343000000    -6.165000000     3.848000000
H     4.229000000    -6.122000000     2.898000000
H     5.038000000    -6.809000000     3.977000000
O     5.553000000    -0.045000000     3.915000000
H     5.192000000     0.632000000     4.488000000
H     4.869000000    -0.197000000     3.263000000
O     5.436000000    -3.280000000     1.424000000
H     4.651000000    -3.608000000     0.986000000
H     5.104000000    -2.783000000     2.171000000
O     6.815000000    -4.838000000    -2.728000000
H     7.328000000    -5.317000000    -2.078000000
H     7.363000000    -4.836000000    -3.513000000
O     1.177000000   -10.268000000     1.556000000
H     0.352000000   -10.204000000     1.074000000
H     1.746000000    -9.619000000     1.144000000
O     1.229000000    -5.365000000     5.579000000
H     1.622000000    -6.201000000     5.328000000
H     0.884000000    -5.007000000     4.761000000
O     3.509000000    -0.994000000     2.444000000
H     3.139000000    -1.778000000     2.849000000
H     3.472000000    -1.169000000     1.504000000
O     3.359000000    -8.897000000     0.388000000
H     4.175000000    -8.407000000     0.284000000
H     3.598000000    -9.804000000     0.196000000
O     1.254000000    -7.317000000     0.207000000
H     1.469000000    -6.392000000     0.085000000
H     2.072000000    -7.779000000     0.024000000
O    -0.478000000    -7.392000000     2.193000000
H    -0.075000000    -6.599000000     2.547000000
H     0.033000000    -7.591000000     1.409000000
O     4.243000000    -5.604000000    -2.083000000
H     5.097000000    -5.374000000    -2.449000000
H     4.054000000    -4.904000000    -1.458000000
O     7.183000000    -2.947000000    -0.693000000
H     6.870000000    -3.515000000    -1.397000000
H     6.411000000    -2.796000000    -0.147000000
O     5.689000000    -8.392000000    -1.106000000
H     6.536000000    -7.946000000    -1.079000000
H     5.592000000    -8.667000000    -2.018000000
