201
-1231.50815
C     2.577000000     2.571000000     3.901000000
H     1.597000000     2.236000000     4.231000000
C     2.722000000     3.357000000     2.767000000
C     3.998000000     3.524000000     2.199000000
H     4.189000000     4.151000000     1.332000000
C     1.543000000     3.871000000     1.991000000
O     0.411000000     4.273000000     2.892000000
H     1.212000000     2.874000000     1.665000000
O     1.765000000     4.712000000     0.900000000
C     1.095000000     4.492000000    -0.251000000
C     1.854000000     3.934000000    -1.298000000
H     2.910000000     3.704000000    -1.189000000
C     1.240000000     3.661000000    -2.511000000
O     1.904000000     2.909000000    -3.425000000
C    -0.106000000     3.880000000    -2.672000000
C    -0.779000000     3.518000000    -3.990000000
H    -1.582000000     4.222000000    -4.222000000
C    -1.317000000     2.104000000    -4.036000000
C    -2.618000000     1.849000000    -3.654000000
H    -3.270000000     2.710000000    -3.531000000
H    -0.005000000     3.618000000    -4.754000000
C    -0.873000000     4.317000000    -1.647000000
H    -1.895000000     4.603000000    -1.884000000
C    -0.256000000     4.705000000    -0.426000000
C    -1.089000000     5.417000000     0.701000000
H    -1.826000000     6.023000000     0.169000000
H    -0.401000000     5.964000000     1.349000000
C    -1.678000000     4.376000000     1.593000000
C    -2.977000000     3.858000000     1.436000000
H    -3.708000000     4.277000000     0.748000000
C    -0.864000000     3.853000000     2.644000000
C    -1.419000000     2.936000000     3.551000000
H    -0.872000000     2.517000000     4.392000000
C    -2.614000000     2.319000000     3.240000000
O    -2.949000000     1.141000000     3.920000000
C    -2.864000000    -0.024000000     3.045000000
C    -2.363000000    -1.223000000     3.840000000
C    -2.694000000    -2.537000000     3.606000000
H    -3.443000000    -2.858000000     2.886000000
C    -1.286000000    -1.027000000     4.734000000
H    -1.024000000    -0.009000000     5.012000000
O    -4.222000000    -0.375000000     2.707000000
H    -2.225000000     0.176000000     2.173000000
C    -3.406000000     2.820000000     2.216000000
C    -4.746000000     2.257000000     1.863000000
H    -5.285000000     3.064000000     1.362000000
H    -5.375000000     2.119000000     2.745000000
C    -4.758000000     1.102000000     0.872000000
C    -5.002000000     1.228000000    -0.480000000
H    -5.125000000     2.253000000    -0.820000000
C    -4.474000000    -0.199000000     1.360000000
C    -4.366000000    -1.332000000     0.516000000
H    -4.141000000    -2.303000000     0.950000000
C    -4.387000000    -1.130000000    -0.847000000
O    -4.058000000    -2.140000000    -1.695000000
C    -2.714000000    -2.250000000    -2.334000000
C    -2.224000000    -3.674000000    -2.481000000
C    -2.426000000    -4.522000000    -1.421000000
H    -3.105000000    -4.157000000    -0.654000000
C    -1.317000000    -3.962000000    -3.489000000
H    -1.124000000    -3.248000000    -4.285000000
O    -2.791000000    -1.724000000    -3.723000000
H    -1.923000000    -1.666000000    -1.840000000
C    -4.663000000     0.193000000    -1.363000000
C    -4.591000000     0.451000000    -2.887000000
H    -5.063000000     1.406000000    -3.125000000
H    -4.984000000    -0.349000000    -3.517000000
C    -3.139000000     0.578000000    -3.425000000
C    -2.352000000    -0.457000000    -3.881000000
C    -1.081000000    -0.247000000    -4.381000000
H    -0.517000000    -1.105000000    -4.737000000
C    -0.536000000     1.031000000    -4.356000000
O     0.789000000     1.112000000    -4.611000000
C     1.653000000     1.474000000    -3.525000000
H     1.155000000     1.174000000    -2.591000000
C     2.893000000     0.587000000    -3.595000000
C     4.028000000     0.956000000    -2.803000000
H     4.036000000     1.899000000    -2.262000000
C     2.859000000    -0.626000000    -4.284000000
H     2.019000000    -0.987000000    -4.871000000
C     3.961000000    -1.492000000    -4.121000000
O     3.957000000    -2.730000000    -4.781000000
C     5.056000000    -1.145000000    -3.407000000
H     5.875000000    -1.854000000    -3.495000000
C     5.163000000     0.152000000    -2.772000000
O     6.301000000     0.411000000    -2.058000000
C     6.455000000     1.593000000    -1.280000000
C     6.146000000     1.665000000     0.109000000
H     5.674000000     0.870000000     0.680000000
C     7.008000000     2.684000000    -1.927000000
H     7.332000000     2.641000000    -2.964000000
C     7.469000000     3.769000000    -1.175000000
H     7.982000000     4.566000000    -1.708000000
C     7.119000000     3.871000000     0.209000000
H     7.530000000     4.645000000     0.853000000
C     6.424000000     2.837000000     0.782000000
O     6.284000000     2.949000000     2.117000000
C     5.096000000     2.871000000     2.712000000
C     4.905000000     2.163000000     3.893000000
H     5.758000000     1.693000000     4.376000000
C     3.674000000     2.054000000     4.531000000
O     3.554000000     1.477000000     5.805000000
C     2.438000000     0.998000000     6.441000000
C     2.033000000    -0.247000000     6.155000000
H     2.691000000    -0.840000000     5.526000000
C     1.663000000     1.825000000     7.277000000
H     1.968000000     2.866000000     7.331000000
C     0.511000000     1.436000000     7.861000000
H    -0.215000000     2.082000000     8.349000000
C     0.132000000     0.116000000     7.545000000
H    -0.804000000    -0.245000000     7.965000000
C     0.833000000    -0.733000000     6.723000000
O     0.286000000    -1.937000000     6.373000000
C    -0.607000000    -2.041000000     5.351000000
C    -1.035000000    -3.373000000     5.161000000
H    -0.555000000    -4.271000000     5.541000000
C    -2.122000000    -3.577000000     4.307000000
O    -2.513000000    -4.870000000     3.991000000
C    -3.106000000    -5.245000000     2.762000000
C    -2.284000000    -5.679000000     1.753000000
H    -1.199000000    -5.618000000     1.752000000
C    -4.459000000    -5.418000000     2.712000000
H    -5.079000000    -4.926000000     3.457000000
C    -5.083000000    -6.063000000     1.620000000
H    -6.167000000    -6.106000000     1.566000000
C    -4.285000000    -6.547000000     0.596000000
H    -4.876000000    -7.004000000    -0.194000000
C    -2.927000000    -6.299000000     0.668000000
O    -2.142000000    -6.701000000    -0.360000000
C    -1.801000000    -5.759000000    -1.398000000
C    -0.924000000    -6.096000000    -2.414000000
H    -0.346000000    -7.015000000    -2.364000000
C    -0.728000000    -5.210000000    -3.452000000
O     0.168000000    -5.659000000    -4.456000000
C     0.887000000    -4.746000000    -5.244000000
C     0.493000000    -4.394000000    -6.531000000
H    -0.442000000    -4.806000000    -6.900000000
C     1.300000000    -3.513000000    -7.298000000
H     0.962000000    -3.103000000    -8.246000000
C     2.477000000    -2.991000000    -6.756000000
H     3.151000000    -2.306000000    -7.264000000
C     2.845000000    -3.338000000    -5.461000000
C     2.035000000    -4.159000000    -4.743000000
H     2.495000000    -4.469000000    -3.808000000
O     3.765000000    -3.558000000     4.971000000
H     2.946000000    -4.054000000     4.957000000
H     4.251000000    -3.879000000     4.211000000
O     4.007000000    -7.930000000     0.882000000
H     3.451000000    -8.647000000     1.187000000
H     3.391000000    -7.254000000     0.598000000
O     5.357000000    -6.405000000     5.139000000
H     5.430000000    -6.747000000     4.248000000
H     4.556000000    -5.881000000     5.129000000
O     3.232000000    -7.282000000    -5.012000000
H     4.164000000    -7.129000000    -5.168000000
H     3.137000000    -7.230000000    -4.061000000
O     2.093000000    -5.621000000     4.616000000
H     2.065000000    -6.537000000     4.893000000
H     1.941000000    -5.652000000     3.671000000
O     5.833000000    -7.736000000     2.854000000
H     5.173000000    -7.909000000     2.183000000
H     6.459000000    -8.454000000     2.766000000
O     4.170000000    -2.618000000    -0.537000000
H     3.253000000    -2.407000000    -0.361000000
H     4.136000000    -3.426000000    -1.048000000
O     4.373000000   -10.706000000     1.477000000
H     4.308000000   -11.661000000     1.493000000
H     3.594000000   -10.405000000     1.944000000
O     5.264000000    -4.423000000     3.011000000
H     5.637000000    -5.239000000     2.680000000
H     5.228000000    -3.848000000     2.246000000
O     0.347000000    -7.962000000     2.836000000
H    -0.449000000    -7.456000000     3.001000000
H     0.912000000    -7.365000000     2.345000000
O     2.747000000    -6.780000000    -2.123000000
H     2.480000000    -6.275000000    -1.355000000
H     2.406000000    -7.660000000    -1.961000000
O     5.999000000    -6.826000000    -3.105000000
H     6.296000000    -6.473000000    -2.266000000
H     5.157000000    -7.237000000    -2.907000000
O     4.305000000    -4.749000000    -1.977000000
H     3.643000000    -5.388000000    -2.243000000
H     4.835000000    -4.613000000    -2.763000000
O     0.088000000    -9.506000000     0.441000000
H    -0.265000000    -8.949000000     1.135000000
H     0.693000000    -8.939000000    -0.037000000
O     2.224000000    -9.911000000     2.688000000
H     1.444000000    -9.368000000     2.576000000
H     2.185000000   -10.201000000     3.600000000
O     5.911000000    -6.208000000     0.067000000
H     5.432000000    -6.937000000     0.461000000
H     5.240000000    -5.695000000    -0.383000000
O     5.798000000    -1.987000000     1.459000000
H     6.539000000    -1.420000000     1.246000000
H     5.469000000    -2.280000000     0.609000000
O    -3.041000000    -9.168000000    -0.755000000
H    -2.902000000    -9.512000000     0.127000000
H    -2.766000000    -8.253000000    -0.701000000
O     2.266000000    -9.504000000    -1.306000000
H     2.342000000   -10.356000000    -1.735000000
H     3.168000000    -9.258000000    -1.101000000
