201
-1255.05427
C     3.183000000     1.888000000     2.221000000
H     2.259000000     2.224000000     2.683000000
C     3.415000000     2.315000000     0.925000000
C     4.547000000     1.909000000     0.259000000
H     4.603000000     2.168000000    -0.795000000
C     2.320000000     3.190000000     0.234000000
O     1.842000000     4.271000000     1.016000000
H     1.509000000     2.493000000    -0.026000000
O     2.798000000     3.797000000    -0.978000000
C     1.972000000     3.600000000    -2.048000000
C     2.222000000     2.626000000    -2.954000000
H     3.204000000     2.180000000    -2.822000000
C     1.294000000     2.201000000    -3.863000000
O     1.546000000     1.072000000    -4.583000000
C     0.059000000     2.821000000    -3.947000000
C    -1.048000000     2.426000000    -4.899000000
H    -1.814000000     3.155000000    -5.172000000
C    -1.833000000     1.221000000    -4.353000000
C    -2.984000000     1.419000000    -3.628000000
H    -3.276000000     2.463000000    -3.540000000
H    -0.556000000     2.172000000    -5.841000000
C    -0.213000000     3.931000000    -3.112000000
H    -1.153000000     4.452000000    -3.275000000
C     0.747000000     4.312000000    -2.155000000
C     0.382000000     5.427000000    -1.191000000
H    -0.248000000     6.138000000    -1.729000000
H     1.246000000     6.071000000    -1.014000000
C    -0.311000000     4.850000000     0.077000000
C    -1.666000000     4.743000000     0.166000000
H    -2.331000000     5.021000000    -0.648000000
C     0.475000000     4.360000000     1.124000000
C    -0.143000000     3.971000000     2.339000000
H     0.458000000     3.696000000     3.202000000
C    -1.488000000     3.844000000     2.435000000
O    -2.057000000     3.233000000     3.528000000
C    -2.253000000     1.785000000     3.350000000
C    -1.762000000     1.031000000     4.606000000
C    -2.197000000    -0.218000000     4.920000000
H    -2.881000000    -0.715000000     4.236000000
C    -0.802000000     1.634000000     5.378000000
H    -0.323000000     2.576000000     5.127000000
O    -3.646000000     1.514000000     3.060000000
H    -1.719000000     1.382000000     2.477000000
C    -2.293000000     4.189000000     1.327000000
C    -3.755000000     3.879000000     1.281000000
H    -4.188000000     4.631000000     0.618000000
H    -4.348000000     4.225000000     2.130000000
C    -4.055000000     2.453000000     0.830000000
C    -4.480000000     2.250000000    -0.433000000
H    -4.626000000     3.067000000    -1.135000000
C    -3.990000000     1.345000000     1.740000000
C    -4.279000000     0.046000000     1.381000000
H    -4.361000000    -0.770000000     2.094000000
C    -4.635000000    -0.118000000     0.012000000
O    -4.767000000    -1.423000000    -0.454000000
C    -3.582000000    -1.932000000    -1.203000000
C    -3.117000000    -3.221000000    -0.628000000
C    -2.931000000    -3.446000000     0.769000000
H    -3.086000000    -2.663000000     1.508000000
C    -2.667000000    -4.161000000    -1.465000000
H    -2.807000000    -3.943000000    -2.520000000
O    -3.876000000    -1.976000000    -2.652000000
H    -2.737000000    -1.236000000    -1.092000000
C    -4.704000000     0.969000000    -0.931000000
C    -5.051000000     0.664000000    -2.409000000
H    -5.571000000     1.534000000    -2.815000000
H    -5.776000000    -0.119000000    -2.638000000
C    -3.732000000     0.393000000    -3.135000000
C    -3.309000000    -0.926000000    -3.323000000
C    -2.159000000    -1.189000000    -4.072000000
H    -1.740000000    -2.151000000    -4.356000000
C    -1.412000000    -0.072000000    -4.509000000
O    -0.152000000    -0.453000000    -5.004000000
C     0.955000000    -0.151000000    -4.106000000
H     0.568000000     0.151000000    -3.122000000
C     2.005000000    -1.340000000    -4.051000000
C     3.354000000    -1.123000000    -3.921000000
H     3.794000000    -0.136000000    -3.810000000
C     1.573000000    -2.620000000    -4.283000000
H     0.547000000    -2.811000000    -4.586000000
C     2.474000000    -3.662000000    -4.248000000
O     2.032000000    -4.901000000    -4.671000000
C     3.842000000    -3.431000000    -4.061000000
H     4.529000000    -4.268000000    -4.158000000
C     4.277000000    -2.143000000    -3.873000000
O     5.591000000    -1.963000000    -3.655000000
C     6.106000000    -0.819000000    -3.077000000
C     6.179000000    -0.697000000    -1.682000000
H     5.771000000    -1.444000000    -1.006000000
C     6.722000000     0.076000000    -3.908000000
H     6.532000000    -0.045000000    -4.972000000
C     7.281000000     1.177000000    -3.343000000
H     7.722000000     1.969000000    -3.943000000
C     7.322000000     1.354000000    -1.991000000
H     7.799000000     2.212000000    -1.525000000
C     6.706000000     0.449000000    -1.115000000
O     6.662000000     0.661000000     0.255000000
C     5.481000000     1.076000000     0.880000000
C     5.283000000     0.733000000     2.177000000
H     5.946000000     0.057000000     2.712000000
C     4.127000000     1.099000000     2.906000000
O     3.942000000     0.687000000     4.222000000
C     3.553000000     1.436000000     5.275000000
C     2.375000000     1.034000000     5.922000000
H     1.850000000     0.105000000     5.713000000
C     4.078000000     2.708000000     5.485000000
H     4.995000000     2.866000000     4.924000000
C     3.519000000     3.606000000     6.421000000
H     4.000000000     4.572000000     6.549000000
C     2.273000000     3.281000000     6.989000000
H     1.718000000     3.938000000     7.653000000
C     1.824000000     1.941000000     6.820000000
O     0.567000000     1.605000000     7.360000000
C    -0.495000000     1.073000000     6.601000000
C    -1.023000000    -0.134000000     7.043000000
H    -0.556000000    -0.574000000     7.920000000
C    -1.863000000    -0.780000000     6.113000000
O    -2.260000000    -2.046000000     6.506000000
C    -2.758000000    -2.957000000     5.590000000
C    -2.084000000    -3.447000000     4.468000000
H    -1.127000000    -3.048000000     4.141000000
C    -4.092000000    -3.429000000     5.784000000
H    -4.534000000    -3.197000000     6.749000000
C    -4.671000000    -4.378000000     4.969000000
H    -5.672000000    -4.787000000     5.081000000
C    -3.978000000    -4.819000000     3.846000000
H    -4.403000000    -5.594000000     3.212000000
C    -2.703000000    -4.355000000     3.587000000
O    -2.005000000    -4.838000000     2.584000000
C    -2.330000000    -4.591000000     1.231000000
C    -1.933000000    -5.582000000     0.314000000
H    -1.375000000    -6.449000000     0.657000000
C    -2.055000000    -5.327000000    -1.046000000
O    -1.610000000    -6.290000000    -1.976000000
C    -1.133000000    -5.923000000    -3.194000000
C    -2.008000000    -5.863000000    -4.303000000
H    -3.063000000    -6.121000000    -4.293000000
C    -1.477000000    -5.576000000    -5.532000000
H    -2.058000000    -5.667000000    -6.446000000
C    -0.062000000    -5.337000000    -5.649000000
H     0.466000000    -5.038000000    -6.551000000
C     0.740000000    -5.294000000    -4.544000000
C     0.187000000    -5.575000000    -3.314000000
H     0.839000000    -5.730000000    -2.458000000
O     6.130000000    -6.038000000     5.952000000
H     6.320000000    -6.975000000     5.992000000
H     5.273000000    -5.985000000     5.529000000
O     5.470000000    -6.072000000     1.523000000
H     5.088000000    -5.195000000     1.531000000
H     5.421000000    -6.346000000     0.607000000
O     3.068000000    -6.669000000     3.291000000
H     2.853000000    -5.787000000     3.592000000
H     3.685000000    -6.533000000     2.572000000
O     3.238000000    -8.761000000     5.256000000
H     2.420000000    -9.241000000     5.125000000
H     3.223000000    -8.075000000     4.589000000
O     5.167000000    -7.206000000    -1.020000000
H     4.984000000    -8.142000000    -0.933000000
H     5.225000000    -7.060000000    -1.964000000
O     8.862000000    -4.158000000     0.362000000
H     9.279000000    -4.978000000     0.100000000
H     8.878000000    -4.177000000     1.319000000
O     8.312000000    -4.424000000     3.116000000
H     8.810000000    -4.248000000     3.914000000
H     8.305000000    -5.379000000     3.044000000
O     6.800000000    -2.601000000     7.485000000
H     6.123000000    -2.306000000     6.877000000
H     6.323000000    -2.824000000     8.285000000
O     6.118000000    -2.434000000     3.210000000
H     5.336000000    -2.765000000     2.768000000
H     6.785000000    -3.101000000     3.049000000
O     6.194000000    -3.779000000    -0.730000000
H     5.425000000    -3.771000000    -0.161000000
H     6.938000000    -3.796000000    -0.127000000
O     4.518000000    -1.679000000     5.600000000
H     5.052000000    -2.080000000     4.914000000
H     4.273000000    -0.825000000     5.244000000
O     1.403000000    -5.779000000     6.928000000
H     2.158000000    -5.409000000     6.470000000
H     1.742000000    -6.570000000     7.348000000
O     3.572000000    -4.598000000     5.727000000
H     3.747000000    -3.742000000     6.119000000
H     3.532000000    -4.427000000     4.786000000
O    -1.391000000    -7.983000000     3.052000000
H    -1.844000000    -8.616000000     2.495000000
H    -0.558000000    -7.826000000     2.607000000
O     0.918000000    -7.456000000     1.693000000
H     1.319000000    -6.866000000     1.054000000
H     1.591000000    -7.575000000     2.363000000
O     2.497000000    -5.909000000    -0.263000000
H     3.013000000    -5.178000000     0.077000000
H     3.053000000    -6.303000000    -0.935000000
O     3.514000000    -1.113000000     8.209000000
H     3.886000000    -1.239000000     7.336000000
H     3.369000000    -1.999000000     8.538000000
O     8.840000000    -1.027000000     3.233000000
H     8.029000000    -1.429000000     2.923000000
H     9.441000000    -1.762000000     3.354000000
O     7.429000000    -7.231000000     2.701000000
H     6.581000000    -6.934000000     2.370000000
H     7.846000000    -7.651000000     1.949000000
