201
-1264.07306
C     4.479000000     1.823000000     1.507000000
H     3.923000000     2.228000000     2.349000000
C     4.116000000     2.235000000     0.217000000
C     4.801000000     1.683000000    -0.882000000
H     4.366000000     1.734000000    -1.877000000
C     2.904000000     3.025000000    -0.030000000
O     2.598000000     3.873000000     1.090000000
H     2.084000000     2.313000000    -0.203000000
O     3.021000000     3.946000000    -1.144000000
C     1.834000000     3.954000000    -1.935000000
C     1.857000000     3.111000000    -2.971000000
H     2.791000000     2.616000000    -3.224000000
C     0.705000000     2.954000000    -3.700000000
O     0.649000000     1.956000000    -4.658000000
C    -0.452000000     3.652000000    -3.410000000
C    -1.823000000     3.341000000    -4.134000000
H    -2.475000000     4.214000000    -4.057000000
C    -2.507000000     2.218000000    -3.489000000
C    -3.578000000     2.406000000    -2.583000000
H    -3.925000000     3.425000000    -2.430000000
H    -1.624000000     3.094000000    -5.179000000
C    -0.511000000     4.477000000    -2.284000000
H    -1.408000000     4.947000000    -1.886000000
C     0.675000000     4.688000000    -1.596000000
C     0.722000000     5.560000000    -0.369000000
H     0.078000000     6.410000000    -0.606000000
H     1.781000000     5.820000000    -0.314000000
C     0.334000000     4.709000000     0.832000000
C    -1.009000000     4.690000000     1.271000000
H    -1.680000000     5.348000000     0.724000000
C     1.228000000     3.850000000     1.462000000
C     0.870000000     3.146000000     2.572000000
H     1.556000000     2.556000000     3.175000000
C    -0.460000000     3.111000000     2.978000000
O    -0.818000000     2.445000000     4.145000000
C    -1.452000000     1.134000000     3.889000000
C    -0.867000000     0.011000000     4.695000000
C    -1.679000000    -0.981000000     5.208000000
H    -2.739000000    -1.084000000     4.989000000
C     0.509000000    -0.124000000     4.777000000
H     1.115000000     0.640000000     4.295000000
O    -2.847000000     1.247000000     4.079000000
H    -1.281000000     0.838000000     2.843000000
C    -1.383000000     3.929000000     2.374000000
C    -2.842000000     3.883000000     2.769000000
H    -3.350000000     4.764000000     2.370000000
H    -2.837000000     3.982000000     3.857000000
C    -3.557000000     2.651000000     2.226000000
C    -4.206000000     2.697000000     0.974000000
H    -4.223000000     3.613000000     0.389000000
C    -3.556000000     1.451000000     2.943000000
C    -4.160000000     0.327000000     2.393000000
H    -4.025000000    -0.620000000     2.908000000
C    -4.767000000     0.298000000     1.145000000
O    -4.994000000    -0.944000000     0.555000000
C    -3.949000000    -1.445000000    -0.324000000
C    -3.808000000    -2.931000000    -0.131000000
C    -3.742000000    -3.440000000     1.166000000
H    -3.896000000    -2.731000000     1.975000000
C    -3.505000000    -3.700000000    -1.284000000
H    -3.307000000    -3.272000000    -2.263000000
O    -4.283000000    -1.101000000    -1.703000000
H    -2.998000000    -0.979000000    -0.026000000
C    -4.778000000     1.544000000     0.462000000
C    -5.322000000     1.546000000    -0.912000000
H    -5.768000000     2.538000000    -1.017000000
H    -6.020000000     0.715000000    -1.029000000
C    -4.251000000     1.340000000    -1.979000000
C    -3.755000000     0.036000000    -2.264000000
C    -2.783000000    -0.176000000    -3.173000000
H    -2.473000000    -1.214000000    -3.261000000
C    -2.144000000     0.871000000    -3.768000000
O    -1.187000000     0.536000000    -4.668000000
C     0.196000000     0.707000000    -4.235000000
H     0.362000000     0.679000000    -3.148000000
C     1.075000000    -0.528000000    -4.606000000
C     2.318000000    -0.301000000    -5.210000000
H     2.632000000     0.657000000    -5.617000000
C     0.689000000    -1.805000000    -4.203000000
H    -0.270000000    -1.988000000    -3.726000000
C     1.601000000    -2.872000000    -4.315000000
O     1.317000000    -4.063000000    -3.834000000
C     2.863000000    -2.648000000    -4.938000000
H     3.516000000    -3.510000000    -5.048000000
C     3.249000000    -1.358000000    -5.289000000
O     4.504000000    -1.233000000    -5.750000000
C     5.381000000    -0.388000000    -5.078000000
C     5.481000000    -0.457000000    -3.667000000
H     4.982000000    -1.277000000    -3.157000000
C     6.073000000     0.578000000    -5.767000000
H     5.970000000     0.550000000    -6.849000000
C     6.945000000     1.475000000    -5.107000000
H     7.560000000     2.230000000    -5.589000000
C     7.001000000     1.391000000    -3.684000000
H     7.551000000     2.146000000    -3.128000000
C     6.298000000     0.399000000    -3.013000000
O     6.562000000     0.290000000    -1.688000000
C     5.997000000     0.992000000    -0.670000000
C     6.406000000     0.618000000     0.603000000
H     7.235000000    -0.078000000     0.698000000
C     5.626000000     1.036000000     1.710000000
O     6.041000000     0.570000000     2.930000000
C     5.191000000     0.647000000     3.967000000
C     4.343000000    -0.461000000     4.243000000
H     4.463000000    -1.363000000     3.648000000
C     5.207000000     1.809000000     4.755000000
H     5.741000000     2.708000000     4.457000000
C     4.288000000     1.879000000     5.775000000
H     4.292000000     2.748000000     6.428000000
C     3.298000000     0.863000000     5.992000000
H     2.458000000     1.019000000     6.665000000
C     3.361000000    -0.347000000     5.201000000
O     2.448000000    -1.364000000     5.426000000
C     1.103000000    -1.219000000     5.397000000
C     0.326000000    -2.156000000     6.044000000
H     0.687000000    -3.035000000     6.571000000
C    -1.099000000    -2.041000000     5.910000000
O    -1.817000000    -3.029000000     6.601000000
C    -2.901000000    -3.594000000     5.996000000
C    -2.682000000    -4.055000000     4.689000000
H    -1.686000000    -4.032000000     4.255000000
C    -4.188000000    -3.679000000     6.505000000
H    -4.410000000    -3.329000000     7.510000000
C    -5.215000000    -4.158000000     5.728000000
H    -6.261000000    -4.050000000     6.003000000
C    -5.017000000    -4.583000000     4.434000000
H    -5.913000000    -4.898000000     3.904000000
C    -3.687000000    -4.611000000     3.892000000
O    -3.314000000    -5.260000000     2.709000000
C    -3.369000000    -4.703000000     1.406000000
C    -3.091000000    -5.539000000     0.292000000
H    -2.688000000    -6.538000000     0.442000000
C    -3.210000000    -5.083000000    -1.074000000
O    -2.852000000    -5.896000000    -2.128000000
C    -2.031000000    -5.585000000    -3.244000000
C    -2.544000000    -5.653000000    -4.565000000
H    -3.536000000    -6.035000000    -4.791000000
C    -1.643000000    -5.270000000    -5.581000000
H    -1.999000000    -5.542000000    -6.571000000
C    -0.392000000    -4.759000000    -5.293000000
H     0.225000000    -4.401000000    -6.114000000
C     0.098000000    -4.664000000    -3.964000000
C    -0.765000000    -5.031000000    -2.958000000
H    -0.364000000    -4.862000000    -1.962000000
O     3.570000000    -5.467000000     4.045000000
H     3.496000000    -4.791000000     3.372000000
H     2.759000000    -5.969000000     3.971000000
O     7.108000000    -6.441000000    -2.955000000
H     6.618000000    -5.887000000    -2.346000000
H     6.455000000    -6.734000000    -3.590000000
O    -0.814000000    -7.197000000     2.877000000
H    -0.492000000    -7.086000000     1.982000000
H    -1.226000000    -6.359000000     3.088000000
O     7.350000000    -1.882000000     5.036000000
H     7.151000000    -2.075000000     4.120000000
H     8.090000000    -2.452000000     5.246000000
O     6.123000000    -5.107000000     4.847000000
H     5.266000000    -5.275000000     4.455000000
H     6.096000000    -4.182000000     5.093000000
O     8.860000000    -3.608000000    -0.804000000
H     7.947000000    -3.539000000    -1.082000000
H     8.886000000    -3.166000000     0.044000000
O     4.351000000    -6.559000000     6.940000000
H     4.522000000    -5.914000000     6.254000000
H     4.382000000    -6.055000000     7.754000000
O     5.475000000    -1.587000000     7.357000000
H     6.034000000    -0.817000000     7.459000000
H     5.479000000    -1.763000000     6.416000000
O     6.501000000    -2.378000000    -0.821000000
H     5.803000000    -2.375000000    -0.165000000
H     6.714000000    -1.453000000    -0.947000000
O     2.398000000    -6.360000000     0.735000000
H     1.444000000    -6.380000000     0.820000000
H     2.667000000    -5.601000000     1.253000000
O     6.447000000    -7.934000000     0.886000000
H     7.165000000    -7.310000000     0.990000000
H     5.993000000    -7.648000000     0.093000000
O     0.030000000    -4.428000000     1.354000000
H     0.682000000    -3.925000000     1.843000000
H    -0.433000000    -3.774000000     0.830000000
O     5.712000000    -5.153000000     0.200000000
H     5.305000000    -4.313000000     0.411000000
H     6.169000000    -5.405000000     1.002000000
O     3.706000000    -8.660000000     1.629000000
H     3.236000000    -7.987000000     1.136000000
H     4.630000000    -8.488000000     1.448000000
O     7.609000000    -5.621000000     2.418000000
H     7.276000000    -5.541000000     3.312000000
H     8.561000000    -5.633000000     2.517000000
O     4.090000000    -5.875000000    -1.937000000
H     3.581000000    -6.675000000    -1.809000000
H     4.475000000    -5.697000000    -1.078000000
O     5.563000000    -3.857000000    -3.003000000
H     5.014000000    -4.638000000    -2.941000000
H     5.705000000    -3.591000000    -2.095000000
O     1.269000000    -6.973000000     4.484000000
H     0.502000000    -7.299000000     4.015000000
H     0.909000000    -6.504000000     5.236000000
O     6.665000000    -2.499000000     2.495000000
H     5.854000000    -2.403000000     1.994000000
H     7.316000000    -2.770000000     1.847000000
