201
-1249.80465
C     5.226000000     1.743000000     0.668000000
H     4.781000000     2.477000000     1.334000000
C     4.838000000     1.734000000    -0.629000000
C     5.317000000     0.839000000    -1.524000000
H     4.864000000     0.847000000    -2.512000000
C     3.642000000     2.634000000    -0.959000000
O     3.438000000     3.798000000    -0.115000000
H     2.752000000     2.029000000    -0.733000000
O     3.572000000     2.984000000    -2.347000000
C     2.359000000     2.888000000    -3.009000000
C     2.101000000     1.675000000    -3.712000000
H     2.777000000     0.830000000    -3.808000000
C     0.943000000     1.438000000    -4.373000000
O     0.657000000     0.192000000    -4.886000000
C    -0.125000000     2.369000000    -4.284000000
C    -1.485000000     2.114000000    -4.893000000
H    -1.931000000     3.076000000    -5.156000000
C    -2.441000000     1.360000000    -3.982000000
C    -3.352000000     2.050000000    -3.217000000
H    -3.326000000     3.128000000    -3.356000000
H    -1.455000000     1.533000000    -5.817000000
C     0.171000000     3.599000000    -3.650000000
H    -0.702000000     4.240000000    -3.567000000
C     1.379000000     3.855000000    -2.978000000
C     1.465000000     5.057000000    -2.130000000
H     0.813000000     5.820000000    -2.562000000
H     2.453000000     5.509000000    -2.242000000
C     1.244000000     4.760000000    -0.652000000
C    -0.044000000     4.967000000    -0.252000000
H    -0.746000000     5.323000000    -1.002000000
C     2.167000000     4.155000000     0.246000000
C     1.769000000     3.758000000     1.518000000
H     2.439000000     3.196000000     2.164000000
C     0.434000000     3.936000000     1.881000000
O     0.062000000     3.393000000     3.090000000
C    -0.857000000     2.241000000     3.201000000
C    -0.333000000     1.281000000     4.302000000
C    -1.141000000     0.300000000     4.888000000
H    -2.219000000     0.316000000     4.745000000
C     1.059000000     1.308000000     4.574000000
H     1.762000000     1.885000000     3.979000000
O    -2.160000000     2.601000000     3.411000000
H    -0.870000000     1.823000000     2.183000000
C    -0.499000000     4.568000000     1.060000000
C    -1.888000000     4.859000000     1.557000000
H    -2.178000000     5.751000000     0.997000000
H    -1.871000000     5.188000000     2.598000000
C    -2.870000000     3.652000000     1.327000000
C    -3.664000000     3.532000000     0.184000000
H    -3.653000000     4.275000000    -0.609000000
C    -3.063000000     2.680000000     2.338000000
C    -3.832000000     1.582000000     2.094000000
H    -3.764000000     0.817000000     2.863000000
C    -4.536000000     1.377000000     0.900000000
O    -5.157000000     0.225000000     0.736000000
C    -4.537000000    -0.790000000     0.018000000
C    -4.718000000    -2.167000000     0.641000000
C    -5.013000000    -2.287000000     1.998000000
H    -5.043000000    -1.368000000     2.577000000
C    -4.619000000    -3.267000000    -0.177000000
H    -4.396000000    -3.245000000    -1.241000000
O    -4.878000000    -0.774000000    -1.384000000
H    -3.459000000    -0.576000000     0.060000000
C    -4.442000000     2.374000000    -0.083000000
C    -5.098000000     2.197000000    -1.425000000
H    -5.215000000     3.146000000    -1.953000000
H    -6.106000000     1.784000000    -1.353000000
C    -4.197000000     1.401000000    -2.324000000
C    -4.126000000    -0.031000000    -2.255000000
C    -3.174000000    -0.769000000    -3.047000000
H    -3.088000000    -1.840000000    -2.883000000
C    -2.318000000    -0.032000000    -3.893000000
O    -1.413000000    -0.790000000    -4.589000000
C    -0.114000000    -0.670000000    -4.046000000
H    -0.155000000    -0.142000000    -3.082000000
C     0.582000000    -2.007000000    -3.766000000
C     1.912000000    -2.255000000    -4.146000000
H     2.372000000    -1.522000000    -4.805000000
C    -0.001000000    -2.898000000    -2.916000000
H    -1.003000000    -2.626000000    -2.596000000
C     0.575000000    -4.012000000    -2.424000000
O    -0.075000000    -4.867000000    -1.581000000
C     1.860000000    -4.312000000    -2.809000000
H     2.311000000    -5.244000000    -2.479000000
C     2.605000000    -3.438000000    -3.726000000
O     3.884000000    -3.768000000    -4.212000000
C     4.845000000    -2.740000000    -4.287000000
C     5.355000000    -2.106000000    -3.160000000
H     4.838000000    -2.286000000    -2.221000000
C     5.521000000    -2.587000000    -5.474000000
H     5.163000000    -3.220000000    -6.281000000
C     6.565000000    -1.693000000    -5.614000000
H     6.981000000    -1.669000000    -6.618000000
C     7.001000000    -0.960000000    -4.498000000
H     7.892000000    -0.337000000    -4.502000000
C     6.404000000    -1.245000000    -3.290000000
O     6.990000000    -0.802000000    -2.112000000
C     6.383000000     0.004000000    -1.179000000
C     6.673000000    -0.147000000     0.173000000
H     7.352000000    -0.932000000     0.496000000
C     6.113000000     0.737000000     1.075000000
O     6.519000000     0.620000000     2.359000000
C     5.764000000     1.211000000     3.397000000
C     4.640000000     0.558000000     3.784000000
H     4.389000000    -0.350000000     3.243000000
C     5.978000000     2.483000000     3.911000000
H     6.822000000     3.029000000     3.498000000
C     5.056000000     2.992000000     4.867000000
H     5.168000000     3.960000000     5.349000000
C     4.063000000     2.168000000     5.365000000
H     3.383000000     2.504000000     6.144000000
C     3.847000000     0.927000000     4.823000000
O     3.002000000     0.087000000     5.445000000
C     1.595000000     0.343000000     5.461000000
C     0.756000000    -0.596000000     6.086000000
H     1.174000000    -1.363000000     6.734000000
C    -0.609000000    -0.594000000     5.782000000
O    -1.385000000    -1.473000000     6.478000000
C    -2.737000000    -1.668000000     6.307000000
C    -3.164000000    -2.464000000     5.226000000
H    -2.455000000    -3.002000000     4.603000000
C    -3.618000000    -1.103000000     7.188000000
H    -3.353000000    -0.376000000     7.951000000
C    -4.989000000    -1.287000000     6.940000000
H    -5.615000000    -0.679000000     7.588000000
C    -5.447000000    -2.076000000     5.864000000
H    -6.527000000    -2.129000000     5.752000000
C    -4.529000000    -2.722000000     5.043000000
O    -5.008000000    -3.606000000     4.031000000
C    -4.989000000    -3.534000000     2.616000000
C    -4.915000000    -4.719000000     1.837000000
H    -4.903000000    -5.734000000     2.228000000
C    -4.808000000    -4.524000000     0.415000000
O    -4.736000000    -5.600000000    -0.454000000
C    -3.587000000    -5.774000000    -1.311000000
C    -3.780000000    -6.401000000    -2.517000000
H    -4.792000000    -6.742000000    -2.722000000
C    -2.773000000    -6.563000000    -3.454000000
H    -2.968000000    -7.038000000    -4.412000000
C    -1.514000000    -6.070000000    -3.110000000
H    -0.698000000    -6.059000000    -3.828000000
C    -1.286000000    -5.420000000    -1.906000000
C    -2.344000000    -5.248000000    -1.018000000
H    -1.998000000    -4.716000000    -0.136000000
O     5.658000000    -2.179000000     6.541000000
H     5.000000000    -2.050000000     7.225000000
H     5.153000000    -2.225000000     5.729000000
O     2.711000000    -4.294000000     6.589000000
H     2.134000000    -4.170000000     5.835000000
H     3.528000000    -4.622000000     6.213000000
O     4.743000000    -5.718000000     0.316000000
H     4.409000000    -6.108000000     1.124000000
H     4.442000000    -4.810000000     0.347000000
O     6.597000000    -8.151000000     2.336000000
H     7.165000000    -7.561000000     2.832000000
H     6.721000000    -7.891000000     1.423000000
O     4.744000000    -5.703000000     5.414000000
H     4.779000000    -6.285000000     4.655000000
H     5.469000000    -5.989000000     5.970000000
O     7.313000000    -5.581000000     3.383000000
H     7.352000000    -4.666000000     3.662000000
H     7.788000000    -5.599000000     2.552000000
O     2.272000000    -8.781000000    -0.751000000
H     2.751000000    -9.260000000    -0.075000000
H     1.874000000    -8.045000000    -0.286000000
O    -0.099000000    -8.805000000    -2.101000000
H     0.570000000    -9.279000000    -1.606000000
H    -0.247000000    -8.005000000    -1.597000000
O    -0.392000000    -8.956000000     1.533000000
H    -1.111000000    -8.810000000     2.147000000
H     0.052000000    -8.110000000     1.477000000
O     1.333000000    -3.453000000     4.346000000
H     1.771000000    -3.764000000     3.554000000
H     1.613000000    -2.542000000     4.432000000
O    -2.064000000    -6.842000000     2.921000000
H    -2.195000000    -7.656000000     3.407000000
H    -1.630000000    -6.258000000     3.543000000
O     6.355000000    -3.419000000     1.305000000
H     6.248000000    -4.245000000     0.832000000
H     5.503000000    -2.990000000     1.233000000
O    -0.630000000    -5.604000000     4.622000000
H    -0.181000000    -6.257000000     5.159000000
H     0.041000000    -4.949000000     4.431000000
O     4.614000000    -3.218000000     3.850000000
H     4.692000000    -4.117000000     4.170000000
H     4.403000000    -3.313000000     2.921000000
O     3.089000000    -7.242000000    -4.481000000
H     3.273000000    -8.050000000    -4.001000000
H     3.375000000    -6.544000000    -3.892000000
O     0.815000000    -6.602000000     0.773000000
H    -0.057000000    -6.337000000     1.066000000
H     1.282000000    -5.778000000     0.637000000
O     3.316000000    -6.573000000     2.688000000
H     2.803000000    -7.381000000     2.703000000
H     2.682000000    -5.891000000     2.470000000
O     7.529000000    -2.357000000     3.612000000
H     6.680000000    -1.998000000     3.869000000
H     7.400000000    -2.657000000     2.712000000
O     4.367000000    -7.332000000    -1.920000000
H     3.785000000    -7.895000000    -1.409000000
H     4.636000000    -6.648000000    -1.307000000
