201
-1246.96507
C     4.958000000     2.532000000     1.750000000
H     4.403000000     3.138000000     2.462000000
C     4.486000000     2.382000000     0.434000000
C     5.259000000     1.688000000    -0.496000000
H     4.985000000     1.592000000    -1.543000000
C     3.194000000     3.016000000     0.033000000
O     2.817000000     4.187000000     0.839000000
H     2.428000000     2.228000000     0.074000000
O     3.261000000     3.498000000    -1.295000000
C     2.135000000     3.497000000    -2.064000000
C     2.081000000     2.447000000    -2.970000000
H     2.948000000     1.795000000    -3.042000000
C     0.944000000     2.201000000    -3.733000000
O     0.945000000     1.074000000    -4.515000000
C    -0.062000000     3.127000000    -3.745000000
C    -1.363000000     2.885000000    -4.536000000
H    -1.853000000     3.842000000    -4.730000000
C    -2.294000000     1.859000000    -3.851000000
C    -3.283000000     2.243000000    -2.947000000
H    -3.387000000     3.307000000    -2.750000000
H    -1.115000000     2.525000000    -5.536000000
C    -0.001000000     4.230000000    -2.865000000
H    -0.927000000     4.794000000    -2.795000000
C     1.109000000     4.460000000    -2.044000000
C     1.011000000     5.456000000    -0.919000000
H     0.315000000     6.228000000    -1.254000000
H     1.989000000     5.933000000    -0.827000000
C     0.558000000     4.921000000     0.475000000
C    -0.786000000     4.995000000     0.877000000
H    -1.482000000     5.499000000     0.211000000
C     1.524000000     4.270000000     1.256000000
C     1.154000000     3.657000000     2.482000000
H     1.853000000     3.158000000     3.149000000
C    -0.158000000     3.649000000     2.866000000
O    -0.460000000     2.890000000     3.988000000
C    -1.100000000     1.651000000     3.803000000
C    -0.563000000     0.582000000     4.770000000
C    -1.319000000    -0.524000000     5.120000000
H    -2.395000000    -0.602000000     4.993000000
C     0.756000000     0.578000000     5.060000000
H     1.317000000     1.485000000     4.849000000
O    -2.518000000     1.886000000     3.947000000
H    -0.900000000     1.342000000     2.766000000
C    -1.132000000     4.238000000     2.038000000
C    -2.607000000     4.258000000     2.420000000
H    -3.156000000     5.130000000     2.057000000
H    -2.642000000     4.424000000     3.499000000
C    -3.320000000     3.033000000     1.965000000
C    -3.902000000     2.916000000     0.766000000
H    -3.959000000     3.831000000     0.182000000
C    -3.210000000     1.862000000     2.794000000
C    -3.735000000     0.645000000     2.340000000
H    -3.673000000    -0.237000000     2.973000000
C    -4.257000000     0.530000000     1.024000000
O    -4.614000000    -0.649000000     0.514000000
C    -3.836000000    -1.333000000    -0.560000000
C    -3.833000000    -2.864000000    -0.377000000
C    -3.856000000    -3.421000000     0.900000000
H    -3.875000000    -2.766000000     1.768000000
C    -3.728000000    -3.744000000    -1.512000000
H    -3.532000000    -3.332000000    -2.499000000
O    -4.471000000    -1.052000000    -1.810000000
H    -2.791000000    -0.992000000    -0.599000000
C    -4.353000000     1.666000000     0.239000000
C    -5.002000000     1.744000000    -1.202000000
H    -5.314000000     2.771000000    -1.402000000
H    -5.917000000     1.160000000    -1.319000000
C    -4.001000000     1.243000000    -2.263000000
C    -3.879000000    -0.094000000    -2.580000000
C    -2.866000000    -0.503000000    -3.449000000
H    -2.754000000    -1.576000000    -3.577000000
C    -2.118000000     0.442000000    -4.142000000
O    -1.111000000    -0.018000000    -4.955000000
C     0.085000000    -0.051000000    -4.177000000
H    -0.167000000    -0.096000000    -3.107000000
C     0.797000000    -1.406000000    -4.364000000
C     2.103000000    -1.442000000    -3.918000000
H     2.631000000    -0.572000000    -3.535000000
C     0.192000000    -2.559000000    -4.853000000
H    -0.752000000    -2.518000000    -5.391000000
C     0.896000000    -3.769000000    -4.822000000
O     0.195000000    -5.008000000    -5.048000000
C     2.172000000    -3.847000000    -4.306000000
H     2.649000000    -4.784000000    -4.030000000
C     2.761000000    -2.689000000    -3.822000000
O     3.969000000    -2.746000000    -3.182000000
C     4.966000000    -1.750000000    -3.276000000
C     5.611000000    -1.353000000    -2.111000000
H     5.455000000    -1.744000000    -1.110000000
C     5.305000000    -1.230000000    -4.527000000
H     4.790000000    -1.557000000    -5.427000000
C     6.131000000    -0.147000000    -4.566000000
H     6.282000000     0.369000000    -5.511000000
C     6.775000000     0.307000000    -3.414000000
H     7.504000000     1.113000000    -3.390000000
C     6.567000000    -0.308000000    -2.182000000
O     7.111000000     0.217000000    -0.978000000
C     6.386000000     1.002000000    -0.087000000
C     6.800000000     1.103000000     1.241000000
H     7.637000000     0.550000000     1.659000000
C     6.000000000     1.718000000     2.159000000
O     6.276000000     1.775000000     3.497000000
C     5.343000000     1.774000000     4.535000000
C     4.505000000     0.731000000     4.825000000
H     4.367000000    -0.088000000     4.124000000
C     5.249000000     2.928000000     5.355000000
H     5.930000000     3.756000000     5.172000000
C     4.326000000     2.962000000     6.413000000
H     4.342000000     3.814000000     7.088000000
C     3.518000000     1.871000000     6.695000000
H     2.863000000     1.777000000     7.558000000
C     3.592000000     0.740000000     5.893000000
O     2.670000000    -0.263000000     6.224000000
C     1.371000000    -0.406000000     5.808000000
C     0.620000000    -1.547000000     6.076000000
H     1.036000000    -2.336000000     6.697000000
C    -0.744000000    -1.599000000     5.772000000
O    -1.382000000    -2.715000000     5.956000000
C    -2.514000000    -3.114000000     5.235000000
C    -2.442000000    -3.799000000     4.022000000
H    -1.456000000    -4.026000000     3.625000000
C    -3.766000000    -2.927000000     5.859000000
H    -3.824000000    -2.312000000     6.753000000
C    -5.010000000    -3.382000000     5.253000000
H    -6.014000000    -3.396000000     5.668000000
C    -4.871000000    -4.203000000     4.121000000
H    -5.733000000    -4.681000000     3.663000000
C    -3.648000000    -4.403000000     3.475000000
O    -3.626000000    -5.232000000     2.375000000
C    -3.812000000    -4.805000000     1.083000000
C    -3.727000000    -5.630000000    -0.022000000
H    -3.733000000    -6.701000000     0.166000000
C    -3.756000000    -5.152000000    -1.309000000
O    -3.647000000    -5.930000000    -2.409000000
C    -3.017000000    -5.651000000    -3.603000000
C    -3.824000000    -5.499000000    -4.740000000
H    -4.892000000    -5.604000000    -4.566000000
C    -3.319000000    -5.203000000    -5.958000000
H    -4.024000000    -5.084000000    -6.777000000
C    -1.925000000    -5.112000000    -6.085000000
H    -1.443000000    -4.941000000    -7.044000000
C    -1.122000000    -5.191000000    -4.961000000
C    -1.639000000    -5.379000000    -3.654000000
H    -0.960000000    -5.465000000    -2.810000000
O     5.105000000    -4.544000000     6.992000000
H     4.681000000    -4.304000000     6.168000000
H     4.558000000    -4.146000000     7.668000000
O     5.188000000    -7.300000000    -1.963000000
H     4.903000000    -6.413000000    -1.745000000
H     4.375000000    -7.783000000    -2.110000000
O    -1.206000000    -8.006000000     1.161000000
H    -0.891000000    -7.128000000     0.945000000
H    -0.492000000    -8.588000000     0.902000000
O     3.732000000    -5.244000000    -1.195000000
H     2.876000000    -5.674000000    -1.188000000
H     3.669000000    -4.577000000    -0.511000000
O     8.431000000    -2.736000000    -0.251000000
H     7.879000000    -1.957000000    -0.192000000
H     8.103000000    -3.317000000     0.435000000
O     2.481000000    -7.423000000     4.922000000
H     2.243000000    -7.141000000     5.805000000
H     1.875000000    -8.137000000     4.727000000
O     1.775000000    -4.645000000     5.919000000
H     2.497000000    -4.306000000     5.389000000
H     2.134000000    -5.426000000     6.341000000
O    -0.259000000    -5.453000000     0.429000000
H     0.303000000    -4.914000000     0.985000000
H    -0.758000000    -4.823000000    -0.090000000
O     6.672000000    -3.342000000     1.618000000
H     6.984000000    -4.224000000     1.822000000
H     5.766000000    -3.468000000     1.335000000
O     5.985000000    -5.225000000    -3.637000000
H     5.603000000    -4.935000000    -2.809000000
H     5.841000000    -4.492000000    -4.236000000
O     7.492000000    -6.007000000     1.522000000
H     6.995000000    -6.641000000     2.039000000
H     8.400000000    -6.304000000     1.588000000
O    -1.251000000    -7.298000000     3.637000000
H    -0.696000000    -6.524000000     3.542000000
H    -1.466000000    -7.551000000     2.739000000
O     5.918000000    -7.511000000     3.594000000
H     5.117000000    -7.463000000     4.116000000
H     6.599000000    -7.161000000     4.167000000
O     0.605000000    -5.332000000     3.457000000
H     0.786000000    -5.324000000     4.397000000
H     1.341000000    -4.860000000     3.068000000
O     4.213000000    -3.942000000     4.608000000
H     3.653000000    -3.990000000     3.833000000
H     4.817000000    -3.223000000     4.422000000
O     1.437000000    -8.815000000     0.963000000
H     1.615000000    -9.494000000     1.614000000
H     1.876000000    -8.035000000     1.305000000
O     2.927000000    -6.839000000     2.136000000
H     2.773000000    -6.877000000     3.080000000
H     2.625000000    -5.967000000     1.879000000
O     6.579000000    -2.331000000     4.177000000
H     6.449000000    -2.567000000     3.258000000
H     7.450000000    -2.667000000     4.388000000
O     4.979000000    -8.359000000     0.768000000
H     4.221000000    -7.902000000     1.132000000
H     5.544000000    -8.525000000     1.523000000
