201
-1245.06858
C     4.275000000     2.219000000     0.745000000
H     3.688000000     2.823000000     1.432000000
C     4.194000000     2.358000000    -0.655000000
C     5.038000000     1.584000000    -1.459000000
H     4.985000000     1.559000000    -2.544000000
C     2.980000000     3.007000000    -1.239000000
O     2.642000000     4.304000000    -0.672000000
H     2.183000000     2.311000000    -0.938000000
O     3.131000000     3.086000000    -2.714000000
C     2.027000000     2.617000000    -3.329000000
C     1.953000000     1.297000000    -3.730000000
H     2.809000000     0.645000000    -3.573000000
C     0.869000000     0.744000000    -4.379000000
O     1.047000000    -0.602000000    -4.649000000
C    -0.262000000     1.544000000    -4.576000000
C    -1.465000000     0.967000000    -5.235000000
H    -2.094000000     1.697000000    -5.747000000
C    -2.314000000     0.169000000    -4.279000000
C    -3.276000000     0.867000000    -3.582000000
H    -3.330000000     1.945000000    -3.707000000
H    -1.119000000     0.279000000    -6.009000000
C    -0.265000000     2.813000000    -4.059000000
H    -1.165000000     3.416000000    -4.146000000
C     0.827000000     3.393000000    -3.455000000
C     0.768000000     4.778000000    -2.926000000
H     0.046000000     5.456000000    -3.386000000
H     1.735000000     5.242000000    -3.131000000
C     0.380000000     4.765000000    -1.423000000
C    -0.929000000     4.905000000    -1.076000000
H    -1.713000000     5.011000000    -1.821000000
C     1.312000000     4.546000000    -0.412000000
C     0.928000000     4.419000000     0.882000000
H     1.653000000     4.240000000     1.671000000
C    -0.379000000     4.559000000     1.235000000
O    -0.793000000     4.214000000     2.485000000
C    -1.283000000     2.914000000     2.800000000
C    -0.718000000     2.470000000     4.139000000
C    -1.400000000     1.456000000     4.843000000
H    -2.373000000     1.063000000     4.560000000
C     0.571000000     2.789000000     4.474000000
H     1.183000000     3.436000000     3.851000000
O    -2.768000000     2.945000000     2.871000000
H    -0.891000000     2.156000000     2.106000000
C    -1.323000000     4.830000000     0.249000000
C    -2.813000000     4.787000000     0.593000000
H    -3.256000000     5.539000000    -0.063000000
H    -3.040000000     5.199000000     1.578000000
C    -3.449000000     3.409000000     0.595000000
C    -4.130000000     2.898000000    -0.520000000
H    -4.100000000     3.599000000    -1.351000000
C    -3.463000000     2.587000000     1.676000000
C    -3.965000000     1.307000000     1.645000000
H    -3.890000000     0.643000000     2.502000000
C    -4.600000000     0.849000000     0.470000000
O    -4.921000000    -0.496000000     0.558000000
C    -4.136000000    -1.510000000    -0.110000000
C    -4.110000000    -2.720000000     0.762000000
C    -3.899000000    -2.538000000     2.139000000
H    -3.725000000    -1.525000000     2.494000000
C    -4.228000000    -3.931000000     0.164000000
H    -4.233000000    -4.050000000    -0.917000000
O    -4.561000000    -1.820000000    -1.421000000
H    -3.095000000    -1.178000000     0.014000000
C    -4.683000000     1.631000000    -0.668000000
C    -5.163000000     1.019000000    -1.907000000
H    -5.384000000     1.828000000    -2.606000000
H    -6.074000000     0.427000000    -1.800000000
C    -4.096000000     0.182000000    -2.686000000
C    -3.867000000    -1.177000000    -2.373000000
C    -2.831000000    -1.796000000    -3.030000000
H    -2.805000000    -2.880000000    -2.953000000
C    -2.063000000    -1.203000000    -4.031000000
O    -0.960000000    -1.886000000    -4.489000000
C     0.250000000    -1.553000000    -3.859000000
H     0.096000000    -0.908000000    -2.981000000
C     1.119000000    -2.706000000    -3.408000000
C     2.512000000    -2.790000000    -3.588000000
H     3.150000000    -2.101000000    -4.137000000
C     0.546000000    -3.746000000    -2.695000000
H    -0.536000000    -3.746000000    -2.589000000
C     1.286000000    -4.778000000    -2.194000000
O     0.594000000    -5.948000000    -1.721000000
C     2.649000000    -4.863000000    -2.404000000
H     3.223000000    -5.724000000    -2.071000000
C     3.265000000    -3.859000000    -3.067000000
O     4.681000000    -3.988000000    -3.224000000
C     5.575000000    -2.916000000    -3.357000000
C     5.729000000    -1.944000000    -2.307000000
H     5.199000000    -1.986000000    -1.359000000
C     6.229000000    -2.828000000    -4.563000000
H     6.004000000    -3.532000000    -5.359000000
C     6.927000000    -1.675000000    -4.836000000
H     7.391000000    -1.590000000    -5.815000000
C     7.266000000    -0.854000000    -3.817000000
H     7.818000000     0.039000000    -4.100000000
C     6.678000000    -0.947000000    -2.562000000
O     6.950000000     0.111000000    -1.731000000
C     6.030000000     0.808000000    -0.910000000
C     6.140000000     0.665000000     0.482000000
H     6.981000000     0.152000000     0.942000000
C     5.231000000     1.352000000     1.270000000
O     5.205000000     1.151000000     2.666000000
C     4.940000000     2.062000000     3.635000000
C     3.765000000     1.946000000     4.324000000
H     3.011000000     1.292000000     3.894000000
C     5.985000000     2.872000000     4.138000000
H     6.995000000     2.756000000     3.754000000
C     5.790000000     3.565000000     5.285000000
H     6.554000000     4.230000000     5.680000000
C     4.560000000     3.506000000     5.964000000
H     4.424000000     4.132000000     6.842000000
C     3.521000000     2.729000000     5.418000000
O     2.257000000     2.745000000     6.132000000
C     1.072000000     2.286000000     5.659000000
C     0.281000000     1.403000000     6.432000000
H     0.664000000     1.155000000     7.419000000
C    -0.964000000     0.941000000     6.058000000
O    -1.607000000    -0.005000000     6.829000000
C    -2.680000000    -0.722000000     6.325000000
C    -2.494000000    -1.869000000     5.566000000
H    -1.475000000    -2.037000000     5.226000000
C    -3.961000000    -0.318000000     6.658000000
H    -4.084000000     0.587000000     7.248000000
C    -5.066000000    -1.057000000     6.226000000
H    -6.020000000    -0.601000000     6.479000000
C    -4.923000000    -2.175000000     5.409000000
H    -5.726000000    -2.878000000     5.206000000
C    -3.632000000    -2.627000000     5.170000000
O    -3.352000000    -3.584000000     4.268000000
C    -3.698000000    -3.632000000     2.906000000
C    -3.825000000    -4.904000000     2.328000000
H    -3.512000000    -5.754000000     2.929000000
C    -4.011000000    -5.024000000     0.961000000
O    -3.658000000    -6.290000000     0.391000000
C    -2.949000000    -6.408000000    -0.759000000
C    -3.560000000    -6.382000000    -2.012000000
H    -4.643000000    -6.471000000    -2.027000000
C    -2.804000000    -6.301000000    -3.164000000
H    -3.342000000    -6.292000000    -4.109000000
C    -1.405000000    -6.265000000    -3.070000000
H    -0.750000000    -6.113000000    -3.924000000
C    -0.816000000    -6.088000000    -1.831000000
C    -1.592000000    -6.195000000    -0.668000000
H    -1.251000000    -5.875000000     0.313000000
O     1.319000000    -5.534000000     1.561000000
H     0.997000000    -4.932000000     0.889000000
H     1.088000000    -5.113000000     2.389000000
O     6.296000000    -3.159000000     0.639000000
H     5.830000000    -3.778000000     0.077000000
H     5.603000000    -2.691000000     1.107000000
O     3.357000000    -5.118000000     6.208000000
H     3.781000000    -5.904000000     5.863000000
H     3.867000000    -4.894000000     6.987000000
O     6.012000000    -6.884000000     0.371000000
H     5.406000000    -6.386000000     0.919000000
H     6.244000000    -6.284000000    -0.338000000
O     7.088000000    -4.597000000     3.933000000
H     7.588000000    -4.187000000     3.227000000
H     7.303000000    -4.081000000     4.710000000
O     4.222000000    -5.309000000     1.722000000
H     3.295000000    -5.424000000     1.514000000
H     4.304000000    -4.383000000     1.948000000
O     1.080000000    -3.911000000     7.217000000
H     0.991000000    -3.181000000     6.603000000
H     1.793000000    -4.439000000     6.859000000
O     1.602000000    -1.569000000     5.946000000
H     1.940000000    -1.397000000     5.067000000
H     2.130000000    -1.014000000     6.519000000
O     5.077000000     0.029000000     7.918000000
H     4.721000000    -0.614000000     7.305000000
H     5.508000000     0.678000000     7.362000000
O     8.858000000    -2.059000000     0.257000000
H     8.854000000    -2.239000000     1.197000000
H     8.157000000    -2.609000000    -0.094000000
O     7.408000000    -2.165000000     5.825000000
H     6.743000000    -1.753000000     5.274000000
H     8.175000000    -1.601000000     5.737000000
O    -1.009000000    -5.108000000     4.194000000
H    -0.133000000    -4.848000000     4.479000000
H    -1.534000000    -4.312000000     4.277000000
O     4.431000000    -1.732000000     5.812000000
H     4.128000000    -1.551000000     4.922000000
H     4.681000000    -2.655000000     5.796000000
O     1.436000000    -3.893000000     4.290000000
H     2.047000000    -4.127000000     4.988000000
H     1.793000000    -3.086000000     3.919000000
O     9.325000000    -2.445000000     3.387000000
H     8.654000000    -1.774000000     3.508000000
H    10.022000000    -2.200000000     3.996000000
O     2.991000000    -7.842000000     3.214000000
H     2.320000000    -8.348000000     3.672000000
H     2.559000000    -7.541000000     2.414000000
O     4.976000000    -6.401000000     4.396000000
H     4.457000000    -6.628000000     3.624000000
H     5.547000000    -5.693000000     4.099000000
O     6.708000000    -1.319000000     3.200000000
H     6.382000000    -0.464000000     2.920000000
H     6.068000000    -1.943000000     2.859000000
O     0.009000000    -3.232000000     0.499000000
H     0.521000000    -2.463000000     0.751000000
H    -0.811000000    -2.874000000     0.160000000
