201
-1244.94938
C     4.482000000     1.947000000     0.752000000
H     3.718000000     2.405000000     1.377000000
C     4.546000000     2.153000000    -0.603000000
C     5.454000000     1.425000000    -1.355000000
H     5.459000000     1.441000000    -2.442000000
C     3.384000000     2.864000000    -1.238000000
O     3.191000000     4.142000000    -0.670000000
H     2.494000000     2.286000000    -0.948000000
O     3.496000000     2.946000000    -2.661000000
C     2.397000000     2.578000000    -3.380000000
C     2.415000000     1.292000000    -3.856000000
H     3.265000000     0.633000000    -3.698000000
C     1.246000000     0.706000000    -4.453000000
O     1.238000000    -0.664000000    -4.737000000
C     0.159000000     1.547000000    -4.744000000
C    -1.070000000     0.996000000    -5.464000000
H    -1.552000000     1.776000000    -6.056000000
C    -2.068000000     0.397000000    -4.420000000
C    -3.047000000     1.195000000    -3.832000000
H    -3.182000000     2.247000000    -4.070000000
H    -0.826000000     0.136000000    -6.091000000
C     0.179000000     2.877000000    -4.269000000
H    -0.623000000     3.579000000    -4.483000000
C     1.275000000     3.400000000    -3.543000000
C     1.260000000     4.766000000    -2.891000000
H     0.493000000     5.375000000    -3.374000000
H     2.263000000     5.183000000    -3.006000000
C     0.946000000     4.702000000    -1.364000000
C    -0.423000000     4.915000000    -1.045000000
H    -1.202000000     5.008000000    -1.797000000
C     1.855000000     4.429000000    -0.346000000
C     1.403000000     4.254000000     0.946000000
H     2.127000000     3.800000000     1.619000000
C     0.044000000     4.365000000     1.277000000
O    -0.334000000     4.027000000     2.553000000
C    -1.006000000     2.774000000     2.738000000
C    -0.686000000     2.187000000     4.166000000
C    -1.688000000     1.597000000     4.934000000
H    -2.718000000     1.480000000     4.608000000
C     0.591000000     2.397000000     4.687000000
H     1.398000000     2.816000000     4.093000000
O    -2.428000000     3.003000000     2.658000000
H    -0.752000000     1.988000000     2.012000000
C    -0.882000000     4.769000000     0.294000000
C    -2.331000000     4.927000000     0.663000000
H    -2.719000000     5.726000000     0.027000000
H    -2.580000000     5.316000000     1.653000000
C    -3.120000000     3.607000000     0.529000000
C    -3.722000000     3.257000000    -0.667000000
H    -3.692000000     3.935000000    -1.516000000
C    -3.088000000     2.720000000     1.541000000
C    -3.726000000     1.512000000     1.431000000
H    -3.755000000     0.879000000     2.314000000
C    -4.404000000     1.211000000     0.252000000
O    -4.979000000     0.043000000     0.174000000
C    -4.118000000    -1.012000000    -0.300000000
C    -4.109000000    -2.263000000     0.694000000
C    -4.345000000    -2.098000000     2.103000000
H    -4.803000000    -1.169000000     2.434000000
C    -3.644000000    -3.456000000     0.240000000
H    -3.579000000    -3.610000000    -0.835000000
O    -4.636000000    -1.270000000    -1.571000000
H    -3.121000000    -0.575000000    -0.460000000
C    -4.406000000     2.087000000    -0.840000000
C    -4.956000000     1.503000000    -2.177000000
H    -5.116000000     2.330000000    -2.872000000
H    -5.909000000     1.029000000    -1.933000000
C    -3.921000000     0.644000000    -2.857000000
C    -3.866000000    -0.742000000    -2.589000000
C    -2.842000000    -1.510000000    -3.139000000
H    -2.804000000    -2.564000000    -2.875000000
C    -1.957000000    -0.963000000    -4.085000000
O    -0.898000000    -1.674000000    -4.477000000
C     0.398000000    -1.495000000    -3.898000000
H     0.220000000    -1.059000000    -2.904000000
C     1.089000000    -2.813000000    -3.557000000
C     2.451000000    -2.805000000    -3.373000000
H     3.065000000    -1.942000000    -3.614000000
C     0.322000000    -3.928000000    -3.294000000
H    -0.758000000    -3.813000000    -3.248000000
C     0.963000000    -5.162000000    -2.884000000
O     0.267000000    -6.353000000    -2.610000000
C     2.349000000    -5.164000000    -2.748000000
H     3.034000000    -5.965000000    -2.484000000
C     3.049000000    -3.994000000    -3.034000000
O     4.416000000    -3.957000000    -2.739000000
C     5.334000000    -2.983000000    -3.080000000
C     5.899000000    -2.182000000    -2.135000000
H     5.452000000    -2.277000000    -1.149000000
C     5.589000000    -2.764000000    -4.428000000
H     5.176000000    -3.371000000    -5.230000000
C     6.559000000    -1.771000000    -4.690000000
H     6.831000000    -1.722000000    -5.741000000
C     7.213000000    -0.987000000    -3.743000000
H     7.796000000    -0.134000000    -4.081000000
C     6.832000000    -1.159000000    -2.421000000
O     7.186000000    -0.229000000    -1.494000000
C     6.295000000     0.534000000    -0.716000000
C     6.297000000     0.363000000     0.653000000
H     6.896000000    -0.430000000     1.093000000
C     5.350000000     1.021000000     1.358000000
O     5.135000000     0.758000000     2.737000000
C     4.734000000     1.687000000     3.662000000
C     3.655000000     1.347000000     4.496000000
H     3.140000000     0.401000000     4.347000000
C     5.412000000     2.902000000     3.909000000
H     6.278000000     3.171000000     3.309000000
C     4.934000000     3.811000000     4.853000000
H     5.426000000     4.764000000     5.031000000
C     3.937000000     3.448000000     5.797000000
H     3.744000000     4.060000000     6.675000000
C     3.333000000     2.162000000     5.527000000
O     2.233000000     1.857000000     6.337000000
C     0.891000000     1.902000000     5.949000000
C    -0.078000000     1.168000000     6.675000000
H     0.213000000     0.714000000     7.618000000
C    -1.412000000     1.003000000     6.177000000
O    -2.296000000     0.310000000     6.899000000
C    -3.468000000    -0.246000000     6.447000000
C    -3.365000000    -1.367000000     5.544000000
H    -2.387000000    -1.786000000     5.320000000
C    -4.715000000     0.240000000     6.886000000
H    -4.767000000     1.070000000     7.587000000
C    -5.878000000    -0.378000000     6.443000000
H    -6.826000000    -0.018000000     6.834000000
C    -5.767000000    -1.467000000     5.497000000
H    -6.645000000    -2.084000000     5.322000000
C    -4.519000000    -1.973000000     5.098000000
O    -4.446000000    -3.139000000     4.295000000
C    -4.150000000    -3.191000000     2.955000000
C    -3.646000000    -4.379000000     2.443000000
H    -3.503000000    -5.248000000     3.080000000
C    -3.321000000    -4.499000000     1.104000000
O    -3.121000000    -5.826000000     0.644000000
C    -2.764000000    -6.205000000    -0.624000000
C    -3.492000000    -7.192000000    -1.255000000
H    -4.442000000    -7.477000000    -0.812000000
C    -2.975000000    -7.884000000    -2.332000000
H    -3.549000000    -8.749000000    -2.654000000
C    -1.647000000    -7.581000000    -2.773000000
H    -1.137000000    -8.172000000    -3.529000000
C    -1.047000000    -6.489000000    -2.272000000
C    -1.522000000    -5.784000000    -1.158000000
H    -0.945000000    -5.071000000    -0.574000000
O     0.185000000    -6.005000000     3.480000000
H    -0.325000000    -5.232000000     3.236000000
H     0.287000000    -5.935000000     4.429000000
O     5.345000000    -2.743000000     1.347000000
H     5.123000000    -3.609000000     1.006000000
H     4.606000000    -2.510000000     1.910000000
O     0.641000000    -8.253000000     2.415000000
H     1.172000000    -8.485000000     3.178000000
H     0.474000000    -7.316000000     2.517000000
O     4.909000000    -6.709000000     2.043000000
H     4.459000000    -6.094000000     2.621000000
H     4.916000000    -6.274000000     1.190000000
O     5.234000000    -4.842000000     7.644000000
H     4.731000000    -5.135000000     6.884000000
H     5.112000000    -5.536000000     8.293000000
O     2.918000000    -4.968000000     3.447000000
H     2.109000000    -4.736000000     2.990000000
H     3.200000000    -4.154000000     3.863000000
O     5.076000000    -5.183000000    -0.270000000
H     4.778000000    -4.661000000    -1.015000000
H     5.988000000    -5.392000000    -0.473000000
O    -1.055000000    -2.928000000     8.200000000
H    -0.260000000    -3.348000000     7.872000000
H    -0.773000000    -2.052000000     8.461000000
O     1.402000000    -2.416000000     6.908000000
H     1.473000000    -1.966000000     6.066000000
H     1.888000000    -1.861000000     7.518000000
O    -2.551000000    -5.050000000     6.131000000
H    -2.224000000    -4.619000000     6.920000000
H    -2.253000000    -4.492000000     5.412000000
O     4.166000000    -0.886000000     7.729000000
H     4.816000000    -1.349000000     7.199000000
H     3.633000000    -1.582000000     8.115000000
O    -2.197000000    -7.235000000     4.735000000
H    -1.290000000    -6.941000000     4.650000000
H    -2.554000000    -6.710000000     5.451000000
O     1.074000000    -5.572000000     6.087000000
H     1.264000000    -5.405000000     7.010000000
H     1.405000000    -4.799000000     5.629000000
O     6.956000000    -3.887000000     3.508000000
H     6.866000000    -3.551000000     2.616000000
H     6.236000000    -3.481000000     3.991000000
O     7.150000000    -5.806000000     5.350000000
H     7.157000000    -4.949000000     4.924000000
H     6.222000000    -6.019000000     5.444000000
O     1.978000000    -8.252000000     6.272000000
H     1.199000000    -8.740000000     6.538000000
H     1.671000000    -7.352000000     6.163000000
O     4.637000000    -6.697000000     5.653000000
H     4.334000000    -7.598000000     5.766000000
H     3.979000000    -6.293000000     5.087000000
O     5.357000000    -2.256000000     4.884000000
H     6.068000000    -1.745000000     4.498000000
H     4.591000000    -2.039000000     4.353000000
O    -0.902000000    -3.502000000     3.390000000
H     0.012000000    -3.351000000     3.630000000
H    -1.199000000    -2.664000000     3.036000000
