201
-1255.57770
C     4.287000000     3.253000000     1.568000000
H     3.518000000     3.504000000     2.294000000
C     3.957000000     3.067000000     0.200000000
C     4.946000000     2.493000000    -0.600000000
H     4.660000000     2.228000000    -1.615000000
C     2.631000000     3.402000000    -0.330000000
O     2.069000000     4.520000000     0.393000000
H     1.981000000     2.515000000    -0.308000000
O     2.731000000     3.895000000    -1.741000000
C     1.782000000     3.543000000    -2.593000000
C     2.067000000     2.422000000    -3.395000000
H     3.062000000     1.986000000    -3.354000000
C     1.055000000     1.886000000    -4.157000000
O     1.278000000     0.612000000    -4.693000000
C    -0.188000000     2.514000000    -4.209000000
C    -1.307000000     1.937000000    -4.989000000
H    -1.896000000     2.740000000    -5.438000000
C    -2.181000000     0.987000000    -4.212000000
C    -3.404000000     1.378000000    -3.692000000
H    -3.789000000     2.393000000    -3.732000000
H    -0.845000000     1.456000000    -5.854000000
C    -0.448000000     3.697000000    -3.442000000
H    -1.463000000     4.086000000    -3.458000000
C     0.557000000     4.248000000    -2.594000000
C     0.235000000     5.421000000    -1.732000000
H    -0.632000000     5.950000000    -2.134000000
H     1.092000000     6.089000000    -1.625000000
C    -0.213000000     4.977000000    -0.352000000
C    -1.573000000     4.809000000    -0.039000000
H    -2.372000000     5.042000000    -0.739000000
C     0.690000000     4.570000000     0.593000000
C     0.329000000     4.100000000     1.844000000
H     1.047000000     3.711000000     2.562000000
C    -1.004000000     3.931000000     2.176000000
O    -1.306000000     3.205000000     3.341000000
C    -1.679000000     1.862000000     3.322000000
C    -0.923000000     0.945000000     4.242000000
C    -1.541000000    -0.181000000     4.825000000
H    -2.610000000    -0.350000000     4.726000000
C     0.443000000     1.057000000     4.278000000
H     0.951000000     1.756000000     3.618000000
O    -3.075000000     1.674000000     3.374000000
H    -1.406000000     1.485000000     2.325000000
C    -1.986000000     4.320000000     1.278000000
C    -3.418000000     4.139000000     1.578000000
H    -3.845000000     4.926000000     0.953000000
H    -3.571000000     4.378000000     2.633000000
C    -3.913000000     2.772000000     1.215000000
C    -4.361000000     2.539000000    -0.067000000
H    -4.369000000     3.296000000    -0.847000000
C    -3.832000000     1.733000000     2.153000000
C    -4.346000000     0.480000000     1.781000000
H    -4.303000000    -0.380000000     2.444000000
C    -4.711000000     0.267000000     0.468000000
O    -4.990000000    -1.060000000     0.187000000
C    -4.003000000    -1.777000000    -0.514000000
C    -3.867000000    -3.234000000    -0.024000000
C    -3.854000000    -3.556000000     1.330000000
H    -4.259000000    -2.749000000     1.937000000
C    -3.351000000    -4.206000000    -0.889000000
H    -3.139000000    -3.948000000    -1.923000000
O    -4.280000000    -1.780000000    -1.915000000
H    -2.963000000    -1.444000000    -0.380000000
C    -4.769000000     1.269000000    -0.516000000
C    -5.281000000     1.043000000    -1.944000000
H    -5.836000000     1.900000000    -2.330000000
H    -6.001000000     0.238000000    -1.784000000
C    -4.178000000     0.468000000    -2.863000000
C    -3.670000000    -0.873000000    -2.718000000
C    -2.569000000    -1.296000000    -3.479000000
H    -2.129000000    -2.265000000    -3.258000000
C    -1.862000000    -0.346000000    -4.204000000
O    -0.671000000    -0.740000000    -4.733000000
C     0.487000000    -0.387000000    -3.990000000
H     0.273000000     0.018000000    -2.990000000
C     1.353000000    -1.613000000    -3.736000000
C     2.665000000    -1.430000000    -3.253000000
H     2.980000000    -0.457000000    -2.885000000
C     0.982000000    -2.891000000    -4.079000000
H    -0.011000000    -3.097000000    -4.469000000
C     1.777000000    -4.018000000    -3.785000000
O     1.289000000    -5.197000000    -4.225000000
C     2.979000000    -3.822000000    -3.200000000
H     3.631000000    -4.683000000    -3.077000000
C     3.492000000    -2.532000000    -3.004000000
O     4.713000000    -2.486000000    -2.334000000
C     5.537000000    -1.391000000    -2.555000000
C     5.676000000    -0.356000000    -1.600000000
H     5.047000000    -0.317000000    -0.714000000
C     6.461000000    -1.598000000    -3.547000000
H     6.420000000    -2.487000000    -4.172000000
C     7.523000000    -0.752000000    -3.663000000
H     8.241000000    -0.862000000    -4.471000000
C     7.675000000     0.287000000    -2.767000000
H     8.582000000     0.886000000    -2.730000000
C     6.742000000     0.542000000    -1.732000000
O     7.123000000     1.497000000    -0.828000000
C     6.216000000     2.194000000    -0.081000000
C     6.562000000     2.602000000     1.174000000
H     7.550000000     2.361000000     1.558000000
C     5.552000000     3.059000000     2.021000000
O     5.788000000     3.186000000     3.413000000
C     4.961000000     2.870000000     4.395000000
C     4.212000000     1.691000000     4.254000000
H     4.366000000     0.996000000     3.432000000
C     4.619000000     3.835000000     5.346000000
H     5.145000000     4.784000000     5.401000000
C     3.570000000     3.658000000     6.193000000
H     3.403000000     4.480000000     6.885000000
C     2.822000000     2.465000000     6.115000000
H     1.997000000     2.318000000     6.809000000
C     3.126000000     1.493000000     5.120000000
O     2.517000000     0.259000000     5.106000000
C     1.138000000     0.088000000     4.952000000
C     0.548000000    -1.006000000     5.564000000
H     1.213000000    -1.723000000     6.039000000
C    -0.821000000    -1.094000000     5.518000000
O    -1.357000000    -2.156000000     6.107000000
C    -2.466000000    -2.853000000     5.760000000
C    -2.489000000    -3.614000000     4.605000000
H    -1.582000000    -3.793000000     4.034000000
C    -3.620000000    -2.581000000     6.526000000
H    -3.472000000    -1.937000000     7.390000000
C    -4.839000000    -3.150000000     6.128000000
H    -5.727000000    -3.001000000     6.738000000
C    -4.846000000    -3.968000000     4.986000000
H    -5.773000000    -4.511000000     4.822000000
C    -3.713000000    -4.214000000     4.247000000
O    -3.699000000    -5.108000000     3.178000000
C    -3.541000000    -4.830000000     1.803000000
C    -3.013000000    -5.767000000     0.911000000
H    -2.634000000    -6.740000000     1.213000000
C    -2.927000000    -5.462000000    -0.445000000
O    -2.449000000    -6.439000000    -1.251000000
C    -1.863000000    -6.280000000    -2.556000000
C    -2.704000000    -6.352000000    -3.693000000
H    -3.746000000    -6.633000000    -3.565000000
C    -2.201000000    -6.094000000    -4.952000000
H    -2.907000000    -6.068000000    -5.778000000
C    -0.888000000    -5.768000000    -5.117000000
H    -0.421000000    -5.656000000    -6.092000000
C    -0.016000000    -5.700000000    -3.998000000
C    -0.564000000    -5.889000000    -2.724000000
H     0.092000000    -5.766000000    -1.866000000
O     0.034000000    -5.557000000     1.896000000
H     0.175000000    -4.817000000     2.486000000
H     0.911000000    -5.790000000     1.590000000
O     4.479000000    -4.259000000    -0.021000000
H     3.918000000    -3.707000000     0.523000000
H     4.973000000    -3.641000000    -0.560000000
O    -0.537000000    -8.004000000     3.195000000
H     0.191000000    -8.534000000     2.871000000
H    -0.440000000    -7.164000000     2.747000000
O     5.728000000    -1.224000000     6.383000000
H     5.724000000    -0.384000000     6.841000000
H     4.841000000    -1.312000000     6.035000000
O     2.816000000    -5.577000000     7.314000000
H     3.594000000    -6.125000000     7.217000000
H     3.154000000    -4.728000000     7.597000000
O     3.682000000    -2.970000000     8.445000000
H     4.039000000    -2.154000000     8.796000000
H     3.715000000    -2.857000000     7.495000000
O     6.238000000    -3.784000000     5.328000000
H     6.584000000    -3.865000000     4.439000000
H     6.620000000    -2.973000000     5.661000000
O     2.796000000    -6.375000000     1.284000000
H     3.051000000    -5.773000000     1.983000000
H     3.333000000    -6.115000000     0.536000000
O     6.022000000    -8.249000000     3.608000000
H     5.341000000    -8.879000000     3.843000000
H     5.581000000    -7.400000000     3.629000000
O     1.892000000    -8.743000000     2.336000000
H     2.234000000    -9.555000000     1.962000000
H     2.131000000    -8.068000000     1.701000000
O    -0.722000000    -6.145000000     5.877000000
H    -1.521000000    -5.825000000     5.458000000
H    -0.014000000    -5.817000000     5.324000000
O     8.197000000    -3.146000000     1.708000000
H     8.139000000    -3.508000000     0.824000000
H     8.085000000    -3.902000000     2.285000000
O     1.332000000    -5.096000000     4.772000000
H     1.517000000    -4.666000000     3.937000000
H     1.779000000    -4.556000000     5.424000000
O     8.145000000    -0.673000000     3.721000000
H     7.231000000    -0.953000000     3.766000000
H     8.283000000    -0.452000000     2.799000000
O     1.806000000    -8.390000000     5.318000000
H     2.107000000    -8.510000000     4.418000000
H     1.061000000    -7.794000000     5.245000000
O     3.795000000    -6.702000000     4.422000000
H     3.014000000    -6.233000000     4.718000000
H     4.182000000    -7.051000000     5.224000000
O     5.889000000    -1.763000000     2.659000000
H     6.578000000    -2.203000000     2.160000000
H     5.074000000    -2.129000000     2.316000000
O     3.414000000    -3.269000000     5.215000000
H     4.350000000    -3.466000000     5.261000000
H     3.296000000    -2.869000000     4.354000000
O     6.091000000    -6.582000000     0.815000000
H     5.734000000    -5.849000000     0.314000000
H     5.340000000    -7.158000000     0.963000000
