201
-1258.29763
C     4.674000000     1.471000000     1.883000000
H     4.411000000     2.491000000     2.154000000
C     4.508000000     1.057000000     0.582000000
C     4.733000000    -0.273000000     0.278000000
H     4.678000000    -0.629000000    -0.747000000
C     3.707000000     1.974000000    -0.408000000
O     3.753000000     3.364000000    -0.067000000
H     2.675000000     1.599000000    -0.342000000
O     4.116000000     1.846000000    -1.790000000
C     3.154000000     1.585000000    -2.747000000
C     2.901000000     0.311000000    -3.184000000
H     3.478000000    -0.523000000    -2.794000000
C     1.890000000     0.027000000    -4.071000000
O     1.704000000    -1.280000000    -4.396000000
C     1.104000000     1.066000000    -4.656000000
C    -0.050000000     0.718000000    -5.565000000
H    -0.368000000     1.460000000    -6.300000000
C    -1.238000000     0.272000000    -4.778000000
C    -2.117000000     1.229000000    -4.248000000
H    -1.970000000     2.259000000    -4.563000000
H     0.092000000    -0.107000000    -6.266000000
C     1.453000000     2.409000000    -4.319000000
H     0.832000000     3.172000000    -4.781000000
C     2.442000000     2.676000000    -3.336000000
C     2.731000000     4.055000000    -2.760000000
H     2.485000000     4.778000000    -3.541000000
H     3.807000000     4.224000000    -2.686000000
C     1.998000000     4.328000000    -1.445000000
C     0.686000000     4.851000000    -1.441000000
H     0.296000000     5.239000000    -2.379000000
C     2.537000000     3.932000000    -0.193000000
C     1.769000000     3.975000000     0.990000000
H     2.271000000     3.807000000     1.940000000
C     0.435000000     4.378000000     0.955000000
O    -0.253000000     4.465000000     2.129000000
C    -1.068000000     3.309000000     2.401000000
C    -1.006000000     2.975000000     3.870000000
C    -2.146000000     2.427000000     4.430000000
H    -3.076000000     2.498000000     3.872000000
C     0.194000000     2.972000000     4.545000000
H     1.113000000     3.207000000     4.014000000
O    -2.378000000     3.819000000     2.095000000
H    -0.840000000     2.465000000     1.734000000
C    -0.105000000     4.815000000    -0.259000000
C    -1.576000000     5.345000000    -0.206000000
H    -1.689000000     5.884000000    -1.149000000
H    -1.793000000     6.137000000     0.513000000
C    -2.508000000     4.248000000    -0.274000000
C    -2.934000000     3.669000000    -1.435000000
H    -2.637000000     4.158000000    -2.359000000
C    -2.869000000     3.516000000     0.915000000
C    -3.573000000     2.364000000     0.817000000
H    -3.845000000     1.812000000     1.713000000
C    -3.956000000     1.841000000    -0.428000000
O    -4.611000000     0.619000000    -0.471000000
C    -3.911000000    -0.560000000    -0.847000000
C    -4.339000000    -1.751000000    -0.003000000
C    -4.711000000    -1.460000000     1.345000000
H    -4.903000000    -0.433000000     1.647000000
C    -4.027000000    -3.048000000    -0.373000000
H    -3.606000000    -3.155000000    -1.370000000
O    -4.196000000    -0.911000000    -2.212000000
H    -2.820000000    -0.469000000    -0.749000000
C    -3.727000000     2.555000000    -1.573000000
C    -4.032000000     1.968000000    -2.943000000
H    -4.163000000     2.784000000    -3.656000000
H    -5.025000000     1.520000000    -2.864000000
C    -3.167000000     0.853000000    -3.457000000
C    -3.322000000    -0.454000000    -3.150000000
C    -2.520000000    -1.386000000    -3.719000000
H    -2.778000000    -2.370000000    -3.338000000
C    -1.422000000    -1.087000000    -4.447000000
O    -0.482000000    -2.014000000    -4.745000000
C     0.686000000    -2.066000000    -3.799000000
H     0.477000000    -1.703000000    -2.782000000
C     1.171000000    -3.484000000    -3.708000000
C     2.526000000    -3.730000000    -3.635000000
H     3.313000000    -2.983000000    -3.691000000
C     0.214000000    -4.439000000    -3.281000000
H    -0.861000000    -4.343000000    -3.409000000
C     0.687000000    -5.659000000    -2.725000000
O    -0.192000000    -6.614000000    -2.265000000
C     2.046000000    -5.959000000    -2.647000000
H     2.519000000    -6.804000000    -2.153000000
C     2.947000000    -4.973000000    -3.104000000
O     4.345000000    -5.130000000    -2.851000000
C     5.173000000    -4.194000000    -2.314000000
C     5.033000000    -3.867000000    -0.953000000
H     4.252000000    -4.251000000    -0.301000000
C     6.106000000    -3.518000000    -3.048000000
H     6.295000000    -3.842000000    -4.069000000
C     6.943000000    -2.585000000    -2.495000000
H     7.758000000    -2.117000000    -3.042000000
C     6.825000000    -2.261000000    -1.138000000
H     7.443000000    -1.454000000    -0.751000000
C     5.812000000    -2.803000000    -0.396000000
O     5.522000000    -2.417000000     0.917000000
C     5.192000000    -1.165000000     1.243000000
C     5.433000000    -0.735000000     2.526000000
H     5.886000000    -1.332000000     3.313000000
C     5.153000000     0.580000000     2.861000000
O     5.231000000     0.885000000     4.214000000
C     4.586000000     1.921000000     4.818000000
C     3.405000000     1.654000000     5.500000000
H     3.009000000     0.643000000     5.454000000
C     5.205000000     3.215000000     4.926000000
H     6.185000000     3.300000000     4.463000000
C     4.517000000     4.326000000     5.381000000
H     4.930000000     5.320000000     5.228000000
C     3.270000000     4.034000000     6.049000000
H     2.727000000     4.814000000     6.578000000
C     2.713000000     2.763000000     6.058000000
O     1.495000000     2.488000000     6.605000000
C     0.259000000     2.445000000     5.873000000
C    -0.854000000     1.818000000     6.344000000
H    -0.849000000     1.263000000     7.279000000
C    -2.051000000     1.846000000     5.694000000
O    -3.181000000     1.257000000     6.267000000
C    -4.257000000     0.640000000     5.604000000
C    -4.098000000    -0.523000000     4.844000000
H    -3.124000000    -0.989000000     4.713000000
C    -5.482000000     1.220000000     5.583000000
H    -5.652000000     2.125000000     6.161000000
C    -6.648000000     0.626000000     5.059000000
H    -7.623000000     1.103000000     5.120000000
C    -6.544000000    -0.542000000     4.336000000
H    -7.375000000    -0.979000000     3.788000000
C    -5.236000000    -1.097000000     4.183000000
O    -5.208000000    -2.362000000     3.616000000
C    -4.776000000    -2.536000000     2.264000000
C    -4.678000000    -3.854000000     1.841000000
H    -4.754000000    -4.674000000     2.551000000
C    -4.260000000    -4.120000000     0.531000000
O    -4.012000000    -5.430000000     0.204000000
C    -3.522000000    -5.821000000    -1.016000000
C    -4.284000000    -6.186000000    -2.139000000
H    -5.365000000    -6.114000000    -2.049000000
C    -3.710000000    -6.617000000    -3.370000000
H    -4.426000000    -6.991000000    -4.097000000
C    -2.264000000    -6.790000000    -3.478000000
H    -1.689000000    -7.250000000    -4.278000000
C    -1.570000000    -6.393000000    -2.335000000
C    -2.150000000    -5.881000000    -1.202000000
H    -1.518000000    -5.508000000    -0.400000000
O    -1.269000000    -1.919000000     3.078000000
H    -1.016000000    -1.894000000     2.155000000
H    -0.443000000    -1.839000000     3.555000000
O    -3.598000000    -8.313000000     2.083000000
H    -3.017000000    -7.595000000     1.828000000
H    -3.647000000    -8.253000000     3.037000000
O     2.923000000    -9.676000000     1.193000000
H     2.097000000    -9.217000000     1.039000000
H     3.316000000    -9.218000000     1.936000000
O     0.846000000    -1.652000000     4.882000000
H     0.570000000    -2.457000000     5.321000000
H     0.858000000    -0.993000000     5.575000000
O     3.452000000    -2.711000000     4.930000000
H     2.599000000    -2.337000000     4.710000000
H     3.490000000    -3.530000000     4.436000000
O     5.040000000    -1.594000000     6.703000000
H     5.671000000    -2.225000000     7.049000000
H     4.672000000    -2.022000000     5.930000000
O     2.503000000    -8.696000000     3.861000000
H     2.660000000    -9.439000000     4.444000000
H     1.578000000    -8.767000000     3.626000000
O     4.844000000    -5.196000000     6.488000000
H     4.803000000    -5.473000000     5.572000000
H     4.315000000    -4.399000000     6.521000000
O     0.034000000    -4.144000000     5.830000000
H     0.489000000    -4.919000000     5.502000000
H    -0.857000000    -4.226000000     5.490000000
O    -0.512000000    -9.461000000     3.498000000
H    -0.553000000    -9.739000000     4.413000000
H    -1.147000000    -8.748000000     3.435000000
O    -2.521000000    -3.845000000     4.684000000
H    -2.203000000    -3.312000000     3.955000000
H    -2.455000000    -3.272000000     5.447000000
O    -1.846000000    -6.223000000     2.352000000
H    -1.028000000    -5.894000000     1.982000000
H    -1.840000000    -5.917000000     3.259000000
O     6.903000000    -4.916000000     3.338000000
H     7.328000000    -4.293000000     3.928000000
H     7.224000000    -5.772000000     3.622000000
O     0.885000000    -7.988000000     0.725000000
H     0.745000000    -7.043000000     0.661000000
H     0.416000000    -8.352000000    -0.025000000
O     1.432000000    -6.140000000     4.361000000
H     1.520000000    -5.351000000     3.826000000
H     2.032000000    -6.769000000     3.962000000
O     1.759000000    -6.322000000     7.523000000
H     2.117000000    -6.621000000     6.687000000
H     1.594000000    -5.388000000     7.393000000
O     3.688000000    -6.294000000     1.504000000
H     2.762000000    -6.054000000     1.474000000
H     3.910000000    -6.273000000     2.435000000
O     6.430000000    -6.278000000     0.827000000
H     6.863000000    -5.753000000     1.499000000
H     5.518000000    -5.988000000     0.847000000
O     4.123000000    -5.179000000     3.949000000
H     5.013000000    -4.901000000     3.733000000
H     3.560000000    -4.589000000     3.448000000
