201
-1238.04564
C     4.455000000     2.893000000    -0.883000000
H     3.851000000     3.754000000    -0.608000000
C     4.076000000     1.937000000    -1.814000000
C     4.930000000     0.833000000    -1.997000000
H     4.593000000     0.052000000    -2.674000000
C     2.756000000     1.986000000    -2.525000000
O     2.482000000     3.342000000    -2.752000000
H     1.965000000     1.488000000    -1.945000000
O     2.769000000     1.416000000    -3.883000000
C     1.676000000     0.803000000    -4.191000000
C     1.709000000    -0.545000000    -3.933000000
H     2.624000000    -1.052000000    -3.637000000
C     0.575000000    -1.271000000    -4.159000000
O     0.616000000    -2.618000000    -3.845000000
C    -0.541000000    -0.713000000    -4.783000000
C    -1.774000000    -1.525000000    -5.016000000
H    -2.384000000    -1.053000000    -5.789000000
C    -2.635000000    -1.755000000    -3.818000000
C    -3.640000000    -0.810000000    -3.507000000
H    -3.833000000    -0.051000000    -4.260000000
H    -1.509000000    -2.454000000    -5.525000000
C    -0.585000000     0.639000000    -4.940000000
H    -1.458000000     1.158000000    -5.325000000
C     0.511000000     1.426000000    -4.655000000
C     0.351000000     2.994000000    -4.782000000
H    -0.529000000     3.226000000    -5.385000000
H     1.254000000     3.452000000    -5.190000000
C     0.156000000     3.607000000    -3.374000000
C    -1.152000000     4.055000000    -3.037000000
H    -2.020000000     3.934000000    -3.679000000
C     1.197000000     3.838000000    -2.496000000
C     0.994000000     4.331000000    -1.209000000
H     1.806000000     4.446000000    -0.494000000
C    -0.292000000     4.559000000    -0.787000000
O    -0.498000000     4.745000000     0.556000000
C    -1.117000000     3.702000000     1.314000000
C    -0.376000000     3.445000000     2.605000000
C    -1.173000000     3.213000000     3.730000000
H    -2.255000000     3.110000000     3.709000000
C     1.025000000     3.596000000     2.756000000
H     1.538000000     3.877000000     1.840000000
O    -2.548000000     3.846000000     1.485000000
H    -1.011000000     2.812000000     0.676000000
C    -1.349000000     4.506000000    -1.690000000
C    -2.792000000     4.671000000    -1.282000000
H    -3.389000000     5.041000000    -2.119000000
H    -2.863000000     5.484000000    -0.557000000
C    -3.470000000     3.373000000    -0.747000000
C    -4.123000000     2.489000000    -1.534000000
H    -4.160000000     2.640000000    -2.609000000
C    -3.284000000     3.069000000     0.641000000
C    -3.738000000     1.850000000     1.160000000
H    -3.522000000     1.601000000     2.196000000
C    -4.400000000     1.024000000     0.335000000
O    -4.889000000    -0.088000000     0.964000000
C    -3.991000000    -1.258000000     0.786000000
C    -3.705000000    -2.055000000     2.086000000
C    -3.462000000    -1.433000000     3.283000000
H    -3.623000000    -0.367000000     3.423000000
C    -3.437000000    -3.416000000     2.018000000
H    -3.560000000    -3.927000000     1.066000000
O    -4.585000000    -2.100000000    -0.223000000
H    -3.053000000    -0.935000000     0.310000000
C    -4.557000000     1.254000000    -1.025000000
C    -5.320000000     0.165000000    -1.873000000
H    -5.681000000     0.565000000    -2.823000000
H    -6.163000000    -0.272000000    -1.335000000
C    -4.378000000    -0.915000000    -2.301000000
C    -4.102000000    -2.007000000    -1.479000000
C    -3.165000000    -2.926000000    -1.771000000
H    -3.029000000    -3.836000000    -1.191000000
C    -2.406000000    -2.843000000    -2.927000000
O    -1.318000000    -3.686000000    -2.989000000
C    -0.084000000    -3.065000000    -2.643000000
H    -0.404000000    -2.201000000    -2.042000000
C     0.824000000    -3.934000000    -1.807000000
C     2.220000000    -3.629000000    -1.657000000
H     2.636000000    -2.756000000    -2.154000000
C     0.359000000    -5.074000000    -1.177000000
H    -0.622000000    -5.439000000    -1.468000000
C     1.134000000    -5.933000000    -0.442000000
O     0.529000000    -7.060000000     0.199000000
C     2.428000000    -5.529000000    -0.173000000
H     2.983000000    -6.057000000     0.598000000
C     3.007000000    -4.453000000    -0.856000000
O     4.314000000    -4.088000000    -0.545000000
C     5.161000000    -3.424000000    -1.445000000
C     5.810000000    -2.302000000    -1.005000000
H     5.557000000    -1.819000000    -0.064000000
C     5.332000000    -3.955000000    -2.716000000
H     4.809000000    -4.871000000    -2.980000000
C     6.258000000    -3.358000000    -3.604000000
H     6.481000000    -3.792000000    -4.575000000
C     6.826000000    -2.118000000    -3.174000000
H     7.477000000    -1.625000000    -3.891000000
C     6.528000000    -1.554000000    -1.925000000
O     7.027000000    -0.264000000    -1.572000000
C     6.143000000     0.746000000    -1.303000000
C     6.559000000     1.736000000    -0.386000000
H     7.524000000     1.722000000     0.114000000
C     5.657000000     2.783000000    -0.178000000
O     6.116000000     3.812000000     0.561000000
C     5.437000000     4.430000000     1.481000000
C     4.575000000     3.697000000     2.245000000
H     4.315000000     2.669000000     2.003000000
C     5.701000000     5.753000000     1.855000000
H     6.469000000     6.376000000     1.404000000
C     4.961000000     6.339000000     2.851000000
H     5.047000000     7.409000000     3.021000000
C     3.962000000     5.693000000     3.566000000
H     3.371000000     6.203000000     4.322000000
C     3.828000000     4.319000000     3.304000000
O     3.024000000     3.583000000     4.095000000
C     1.650000000     3.575000000     3.949000000
C     0.840000000     3.208000000     5.004000000
H     1.259000000     3.068000000     5.997000000
C    -0.518000000     3.087000000     4.991000000
O    -1.138000000     2.716000000     6.125000000
C    -2.240000000     1.941000000     6.187000000
C    -1.986000000     0.575000000     6.138000000
H    -1.022000000     0.074000000     6.175000000
C    -3.533000000     2.507000000     6.215000000
H    -3.699000000     3.581000000     6.198000000
C    -4.680000000     1.673000000     6.149000000
H    -5.676000000     2.107000000     6.192000000
C    -4.428000000     0.331000000     5.940000000
H    -5.184000000    -0.436000000     5.793000000
C    -3.124000000    -0.230000000     5.964000000
O    -2.912000000    -1.548000000     5.664000000
C    -3.141000000    -2.149000000     4.455000000
C    -3.052000000    -3.473000000     4.407000000
H    -2.982000000    -4.066000000     5.315000000
C    -3.044000000    -4.129000000     3.179000000
O    -2.775000000    -5.508000000     3.259000000
C    -2.436000000    -6.192000000     2.167000000
C    -3.452000000    -6.831000000     1.509000000
H    -4.500000000    -6.705000000     1.770000000
C    -3.146000000    -7.564000000     0.330000000
H    -3.954000000    -7.985000000    -0.263000000
C    -1.774000000    -7.654000000    -0.047000000
H    -1.501000000    -8.203000000    -0.945000000
C    -0.750000000    -7.044000000     0.686000000
C    -1.127000000    -6.261000000     1.756000000
H    -0.319000000    -5.842000000     2.351000000
O     3.546000000    -0.383000000     6.536000000
H     3.563000000    -1.041000000     5.841000000
H     2.673000000    -0.465000000     6.922000000
O     5.543000000    -1.538000000     2.826000000
H     4.973000000    -2.301000000     2.733000000
H     6.427000000    -1.902000000     2.866000000
O     6.502000000     1.174000000     2.705000000
H     6.197000000     0.297000000     2.938000000
H     7.344000000     1.028000000     2.274000000
O    -0.742000000    -7.147000000     5.653000000
H    -0.291000000    -6.358000000     5.352000000
H    -0.342000000    -7.857000000     5.150000000
O     0.532000000    -2.082000000     5.462000000
H    -0.054000000    -1.992000000     6.213000000
H     0.509000000    -1.225000000     5.036000000
O     1.993000000   -10.245000000     1.879000000
H     2.323000000    -9.406000000     2.201000000
H     2.251000000   -10.877000000     2.550000000
O     3.831000000    -5.892000000     5.211000000
H     3.531000000    -5.154000000     4.681000000
H     4.615000000    -6.208000000     4.761000000
O     2.714000000   -10.005000000     4.707000000
H     2.644000000    -9.162000000     4.259000000
H     3.622000000   -10.275000000     4.567000000
O     7.812000000    -5.605000000    -0.181000000
H     7.180000000    -5.184000000     0.404000000
H     8.629000000    -5.129000000    -0.032000000
O     0.431000000    -5.130000000     4.740000000
H     0.151000000    -4.214000000     4.753000000
H     1.073000000    -5.173000000     4.031000000
O     6.183000000    -6.655000000     4.069000000
H     7.054000000    -6.284000000     3.930000000
H     5.959000000    -7.061000000     3.232000000
O     5.231000000    -7.969000000     1.738000000
H     6.060000000    -8.397000000     1.526000000
H     5.022000000    -7.452000000     0.959000000
O     3.867000000    -3.385000000     7.761000000
H     3.065000000    -3.844000000     8.014000000
H     3.715000000    -3.121000000     6.854000000
O     0.594000000     0.014000000     3.652000000
H     0.631000000    -0.473000000     2.829000000
H     1.169000000     0.766000000     3.512000000
O     5.064000000    -7.068000000    -0.769000000
H     5.479000000    -6.218000000    -0.916000000
H     4.397000000    -7.130000000    -1.453000000
O     2.648000000    -7.794000000     2.852000000
H     3.579000000    -7.618000000     2.718000000
H     2.229000000    -6.937000000     2.776000000
O     6.245000000    -4.611000000     1.785000000
H     6.668000000    -4.411000000     2.620000000
H     5.341000000    -4.320000000     1.900000000
O     3.081000000    -2.895000000     5.442000000
H     2.132000000    -2.813000000     5.343000000
H     3.406000000    -3.006000000     4.549000000
O     6.557000000    -4.327000000     6.443000000
H     6.257000000    -3.748000000     7.144000000
H     5.753000000    -4.635000000     6.026000000
