201
-1239.14525
C     4.076000000     2.135000000    -0.502000000
H     3.372000000     2.896000000    -0.174000000
C     3.856000000     1.477000000    -1.753000000
C     4.756000000     0.505000000    -2.134000000
H     4.529000000     0.103000000    -3.118000000
C     2.652000000     1.873000000    -2.514000000
O     2.338000000     3.267000000    -2.517000000
H     1.768000000     1.321000000    -2.165000000
O     2.751000000     1.331000000    -3.843000000
C     1.570000000     0.777000000    -4.408000000
C     1.520000000    -0.650000000    -4.341000000
H     2.462000000    -1.154000000    -4.141000000
C     0.432000000    -1.346000000    -4.759000000
O     0.461000000    -2.677000000    -4.450000000
C    -0.801000000    -0.677000000    -4.974000000
C    -2.121000000    -1.401000000    -5.155000000
H    -2.738000000    -0.727000000    -5.753000000
C    -2.888000000    -1.657000000    -3.844000000
C    -3.862000000    -0.737000000    -3.368000000
H    -4.187000000     0.064000000    -4.027000000
H    -2.074000000    -2.313000000    -5.753000000
C    -0.735000000     0.730000000    -4.967000000
H    -1.701000000     1.167000000    -5.207000000
C     0.378000000     1.485000000    -4.664000000
C     0.286000000     3.040000000    -4.639000000
H    -0.554000000     3.290000000    -5.290000000
H     1.206000000     3.549000000    -4.935000000
C     0.012000000     3.461000000    -3.235000000
C    -1.290000000     3.750000000    -2.783000000
H    -2.137000000     3.564000000    -3.438000000
C     1.047000000     3.638000000    -2.268000000
C     0.774000000     4.268000000    -1.101000000
H     1.624000000     4.475000000    -0.455000000
C    -0.506000000     4.445000000    -0.614000000
O    -0.643000000     4.926000000     0.693000000
C    -1.244000000     4.061000000     1.681000000
C    -0.670000000     4.271000000     3.063000000
C    -1.285000000     3.762000000     4.218000000
H    -2.208000000     3.188000000     4.189000000
C     0.678000000     4.710000000     3.126000000
H     1.314000000     4.908000000     2.267000000
O    -2.725000000     4.170000000     1.668000000
H    -0.957000000     3.039000000     1.393000000
C    -1.554000000     4.260000000    -1.484000000
C    -3.052000000     4.604000000    -1.178000000
H    -3.467000000     4.712000000    -2.183000000
H    -3.061000000     5.508000000    -0.566000000
C    -3.663000000     3.460000000    -0.463000000
C    -4.362000000     2.508000000    -1.202000000
H    -4.448000000     2.678000000    -2.272000000
C    -3.366000000     3.283000000     0.867000000
C    -3.743000000     2.109000000     1.491000000
H    -3.503000000     1.871000000     2.524000000
C    -4.390000000     1.157000000     0.780000000
O    -4.507000000    -0.025000000     1.396000000
C    -3.623000000    -1.092000000     1.051000000
C    -3.291000000    -1.896000000     2.318000000
C    -3.053000000    -1.207000000     3.490000000
H    -3.104000000    -0.121000000     3.487000000
C    -3.073000000    -3.271000000     2.286000000
H    -3.172000000    -3.709000000     1.296000000
O    -4.288000000    -1.861000000     0.070000000
H    -2.646000000    -0.670000000     0.773000000
C    -4.663000000     1.281000000    -0.599000000
C    -5.334000000     0.212000000    -1.514000000
H    -5.685000000     0.697000000    -2.427000000
H    -6.091000000    -0.380000000    -0.995000000
C    -4.274000000    -0.756000000    -2.023000000
C    -3.763000000    -1.778000000    -1.197000000
C    -2.879000000    -2.727000000    -1.639000000
H    -2.425000000    -3.421000000    -0.936000000
C    -2.457000000    -2.691000000    -2.985000000
O    -1.421000000    -3.461000000    -3.394000000
C     0.030000000    -3.075000000    -3.120000000
H    -0.021000000    -2.202000000    -2.452000000
C     0.860000000    -4.148000000    -2.480000000
C     2.261000000    -4.174000000    -2.646000000
H     2.695000000    -3.392000000    -3.263000000
C     0.235000000    -5.154000000    -1.730000000
H    -0.848000000    -5.098000000    -1.651000000
C     1.053000000    -6.143000000    -1.066000000
O     0.621000000    -6.917000000    -0.071000000
C     2.418000000    -6.035000000    -1.121000000
H     3.064000000    -6.661000000    -0.511000000
C     3.049000000    -5.123000000    -2.009000000
O     4.423000000    -5.047000000    -1.957000000
C     5.197000000    -4.076000000    -2.589000000
C     5.640000000    -2.966000000    -1.845000000
H     5.335000000    -2.820000000    -0.812000000
C     5.664000000    -4.182000000    -3.947000000
H     5.413000000    -5.128000000    -4.421000000
C     6.533000000    -3.278000000    -4.504000000
H     6.896000000    -3.405000000    -5.521000000
C     6.929000000    -2.161000000    -3.780000000
H     7.549000000    -1.377000000    -4.206000000
C     6.412000000    -1.955000000    -2.491000000
O     6.715000000    -0.822000000    -1.848000000
C     5.786000000     0.041000000    -1.380000000
C     5.938000000     0.613000000    -0.133000000
H     6.843000000     0.306000000     0.386000000
C     5.066000000     1.637000000     0.310000000
O     5.279000000     2.113000000     1.617000000
C     4.928000000     3.337000000     2.029000000
C     3.754000000     3.633000000     2.780000000
H     3.237000000     2.766000000     3.181000000
C     5.777000000     4.374000000     1.746000000
H     6.595000000     4.242000000     1.043000000
C     5.534000000     5.698000000     2.159000000
H     6.117000000     6.551000000     1.822000000
C     4.465000000     5.865000000     3.044000000
H     4.255000000     6.801000000     3.554000000
C     3.550000000     4.922000000     3.316000000
O     2.635000000     5.194000000     4.386000000
C     1.331000000     4.796000000     4.340000000
C     0.678000000     4.431000000     5.466000000
H     1.160000000     4.426000000     6.440000000
C    -0.641000000     3.931000000     5.482000000
O    -1.274000000     3.498000000     6.593000000
C    -2.173000000     2.422000000     6.545000000
C    -1.814000000     1.135000000     6.116000000
H    -0.776000000     0.905000000     5.892000000
C    -3.515000000     2.730000000     6.621000000
H    -3.840000000     3.739000000     6.862000000
C    -4.500000000     1.760000000     6.471000000
H    -5.549000000     1.989000000     6.643000000
C    -4.080000000     0.461000000     6.249000000
H    -4.779000000    -0.371000000     6.238000000
C    -2.773000000     0.151000000     6.053000000
O    -2.346000000    -1.181000000     5.777000000
C    -2.676000000    -1.884000000     4.642000000
C    -2.568000000    -3.285000000     4.654000000
H    -2.167000000    -3.770000000     5.541000000
C    -2.716000000    -3.966000000     3.463000000
O    -2.252000000    -5.256000000     3.408000000
C    -2.055000000    -5.958000000     2.268000000
C    -3.143000000    -6.686000000     1.817000000
H    -4.100000000    -6.515000000     2.303000000
C    -2.978000000    -7.501000000     0.674000000
H    -3.760000000    -8.165000000     0.315000000
C    -1.731000000    -7.525000000     0.056000000
H    -1.656000000    -8.092000000    -0.869000000
C    -0.618000000    -6.869000000     0.577000000
C    -0.806000000    -6.130000000     1.727000000
H     0.031000000    -5.542000000     2.092000000
O     4.919000000    -0.526000000     3.449000000
H     4.382000000    -1.139000000     2.947000000
H     4.881000000     0.290000000     2.950000000
O     3.318000000    -1.750000000    10.017000000
H     3.156000000    -2.340000000     9.280000000
H     4.269000000    -1.756000000    10.123000000
O     3.305000000     1.169000000     9.489000000
H     2.615000000     1.120000000     8.828000000
H     3.527000000     0.255000000     9.671000000
O    -3.195000000    -2.153000000     8.394000000
H    -3.603000000    -2.994000000     8.188000000
H    -2.821000000    -1.858000000     7.563000000
O    -0.072000000    -6.317000000     6.159000000
H     0.406000000    -5.639000000     5.682000000
H    -0.467000000    -5.856000000     6.899000000
O     4.002000000    -0.556000000     6.233000000
H     3.121000000    -0.388000000     5.900000000
H     4.474000000    -0.925000000     5.486000000
O     0.167000000    -1.822000000    10.145000000
H     0.863000000    -2.392000000    10.472000000
H     0.478000000    -1.533000000     9.287000000
O     4.245000000    -4.530000000     4.255000000
H     5.180000000    -4.385000000     4.402000000
H     4.192000000    -4.859000000     3.358000000
O     3.177000000    -5.730000000     6.581000000
H     3.661000000    -5.346000000     5.850000000
H     3.720000000    -6.464000000     6.869000000
O    -1.753000000    -5.057000000     8.333000000
H    -1.870000000    -5.033000000     9.282000000
H    -1.188000000    -4.309000000     8.141000000
O     0.720000000    -0.778000000     7.785000000
H     1.091000000    -0.623000000     6.916000000
H     0.146000000    -1.535000000     7.668000000
O     1.670000000    -5.854000000     9.086000000
H     1.571000000    -5.688000000     8.149000000
H     2.150000000    -6.681000000     9.133000000
O    -0.057000000    -3.318000000     7.093000000
H     0.055000000    -3.003000000     6.197000000
H     0.835000000    -3.400000000     7.431000000
O    -0.045000000     1.268000000    10.424000000
H    -0.192000000     0.566000000     9.791000000
H    -0.310000000     0.893000000    11.264000000
O     5.879000000    -0.250000000     7.983000000
H     6.257000000     0.626000000     7.908000000
H     5.087000000    -0.216000000     7.446000000
O     5.743000000     2.235000000     5.226000000
H     6.044000000     1.936000000     6.084000000
H     4.849000000     1.899000000     5.155000000
O     1.486000000    -4.716000000     4.079000000
H     1.120000000    -3.910000000     4.443000000
H     2.423000000    -4.660000000     4.268000000
O     3.576000000    -2.472000000     1.754000000
H     3.660000000    -3.425000000     1.719000000
H     2.694000000    -2.321000000     2.094000000
O     2.991000000    -3.212000000     7.825000000
H     3.125000000    -4.095000000     7.481000000
H     3.459000000    -2.643000000     7.214000000
