201
-1273.76737
C     4.378000000     3.476000000    -0.397000000
H     3.779000000     4.371000000    -0.248000000
C     4.073000000     2.426000000    -1.312000000
C     4.990000000     1.445000000    -1.462000000
H     4.783000000     0.782000000    -2.298000000
C     2.821000000     2.550000000    -2.157000000
O     2.425000000     3.958000000    -2.420000000
H     2.013000000     1.973000000    -1.683000000
O     3.024000000     1.899000000    -3.404000000
C     2.054000000     1.117000000    -4.027000000
C     2.178000000    -0.262000000    -3.922000000
H     3.085000000    -0.630000000    -3.451000000
C     1.171000000    -1.126000000    -4.355000000
O     1.336000000    -2.509000000    -4.108000000
C    -0.011000000    -0.600000000    -4.771000000
C    -1.096000000    -1.504000000    -5.125000000
H    -1.678000000    -1.032000000    -5.920000000
C    -2.075000000    -1.802000000    -3.972000000
C    -3.064000000    -0.909000000    -3.604000000
H    -3.178000000    -0.062000000    -4.276000000
H    -0.644000000    -2.405000000    -5.544000000
C    -0.137000000     0.748000000    -4.930000000
H    -1.085000000     1.181000000    -5.240000000
C     0.844000000     1.660000000    -4.505000000
C     0.685000000     3.202000000    -4.622000000
H    -0.070000000     3.406000000    -5.383000000
H     1.560000000     3.797000000    -4.893000000
C     0.209000000     3.782000000    -3.287000000
C    -1.151000000     3.821000000    -2.997000000
H    -1.861000000     3.515000000    -3.761000000
C     1.090000000     4.207000000    -2.258000000
C     0.623000000     4.653000000    -1.024000000
H     1.415000000     4.876000000    -0.314000000
C    -0.743000000     4.662000000    -0.772000000
O    -1.173000000     4.840000000     0.532000000
C    -1.586000000     3.664000000     1.228000000
C    -1.010000000     3.557000000     2.617000000
C    -1.787000000     3.083000000     3.644000000
H    -2.867000000     3.003000000     3.550000000
C     0.371000000     3.707000000     2.851000000
H     1.039000000     4.077000000     2.078000000
O    -2.987000000     3.514000000     1.216000000
H    -1.202000000     2.807000000     0.655000000
C    -1.606000000     4.253000000    -1.768000000
C    -3.108000000     4.261000000    -1.557000000
H    -3.556000000     4.484000000    -2.528000000
H    -3.460000000     5.086000000    -0.935000000
C    -3.692000000     2.912000000    -1.066000000
C    -4.260000000     1.964000000    -1.961000000
H    -4.322000000     2.076000000    -3.040000000
C    -3.686000000     2.690000000     0.323000000
C    -4.182000000     1.469000000     0.788000000
H    -4.143000000     1.340000000     1.867000000
C    -4.721000000     0.542000000    -0.022000000
O    -5.018000000    -0.697000000     0.472000000
C    -4.008000000    -1.690000000     0.451000000
C    -3.799000000    -2.475000000     1.716000000
C    -3.716000000    -1.803000000     2.953000000
H    -3.608000000    -0.725000000     3.046000000
C    -3.636000000    -3.847000000     1.667000000
H    -3.722000000    -4.333000000     0.699000000
O    -4.460000000    -2.579000000    -0.625000000
H    -3.031000000    -1.224000000     0.252000000
C    -4.747000000     0.786000000    -1.407000000
C    -5.182000000    -0.309000000    -2.372000000
H    -5.544000000     0.128000000    -3.305000000
H    -6.095000000    -0.828000000    -2.073000000
C    -3.970000000    -1.205000000    -2.558000000
C    -3.738000000    -2.391000000    -1.824000000
C    -2.605000000    -3.141000000    -1.987000000
H    -2.507000000    -3.965000000    -1.285000000
C    -1.781000000    -2.887000000    -3.095000000
O    -0.630000000    -3.633000000    -3.168000000
C     0.646000000    -3.006000000    -2.902000000
H     0.534000000    -2.168000000    -2.198000000
C     1.521000000    -3.935000000    -2.076000000
C     2.921000000    -3.790000000    -2.133000000
H     3.359000000    -3.121000000    -2.869000000
C     0.922000000    -4.778000000    -1.206000000
H    -0.159000000    -4.805000000    -1.091000000
C     1.688000000    -5.428000000    -0.246000000
O     1.134000000    -6.094000000     0.792000000
C     3.073000000    -5.255000000    -0.214000000
H     3.658000000    -5.890000000     0.447000000
C     3.666000000    -4.401000000    -1.136000000
O     4.977000000    -4.108000000    -0.930000000
C     5.700000000    -3.058000000    -1.527000000
C     5.976000000    -1.876000000    -0.852000000
H     5.467000000    -1.627000000     0.076000000
C     6.126000000    -3.303000000    -2.834000000
H     5.950000000    -4.194000000    -3.431000000
C     6.785000000    -2.271000000    -3.490000000
H     7.147000000    -2.452000000    -4.499000000
C     7.152000000    -1.059000000    -2.879000000
H     7.796000000    -0.349000000    -3.391000000
C     6.700000000    -0.852000000    -1.525000000
O     6.915000000     0.276000000    -0.828000000
C     6.104000000     1.363000000    -0.649000000
C     6.336000000     2.324000000     0.360000000
H     7.226000000     2.247000000     0.979000000
C     5.565000000     3.474000000     0.385000000
O     5.779000000     4.470000000     1.294000000
C     4.876000000     4.835000000     2.320000000
C     3.936000000     3.961000000     2.872000000
H     3.745000000     2.943000000     2.543000000
C     4.981000000     6.151000000     2.659000000
H     5.688000000     6.827000000     2.185000000
C     4.059000000     6.672000000     3.639000000
H     4.059000000     7.745000000     3.817000000
C     3.138000000     5.803000000     4.213000000
H     2.474000000     6.225000000     4.963000000
C     3.084000000     4.434000000     3.829000000
O     2.232000000     3.582000000     4.441000000
C     0.912000000     3.494000000     4.131000000
C     0.104000000     3.142000000     5.234000000
H     0.535000000     3.033000000     6.225000000
C    -1.267000000     2.923000000     4.944000000
O    -2.207000000     2.523000000     5.855000000
C    -3.162000000     1.548000000     5.786000000
C    -2.801000000     0.195000000     5.626000000
H    -1.771000000    -0.115000000     5.473000000
C    -4.451000000     1.972000000     5.901000000
H    -4.762000000     2.957000000     6.241000000
C    -5.476000000     0.946000000     5.860000000
H    -6.538000000     1.166000000     5.935000000
C    -5.141000000    -0.414000000     5.663000000
H    -5.863000000    -1.161000000     5.342000000
C    -3.787000000    -0.781000000     5.576000000
O    -3.380000000    -2.042000000     5.360000000
C    -3.513000000    -2.592000000     4.099000000
C    -3.365000000    -4.004000000     3.991000000
H    -3.180000000    -4.532000000     4.923000000
C    -3.453000000    -4.596000000     2.785000000
O    -3.239000000    -5.950000000     2.752000000
C    -2.363000000    -6.554000000     1.883000000
C    -2.760000000    -7.728000000     1.251000000
H    -3.687000000    -8.267000000     1.428000000
C    -1.840000000    -8.351000000     0.421000000
H    -2.032000000    -9.329000000    -0.012000000
C    -0.537000000    -7.891000000     0.268000000
H     0.218000000    -8.528000000    -0.187000000
C    -0.180000000    -6.629000000     0.861000000
C    -1.142000000    -5.982000000     1.633000000
H    -0.829000000    -5.190000000     2.308000000
O     4.684000000    -0.127000000     2.123000000
H     4.349000000     0.121000000     1.262000000
H     5.601000000     0.148000000     2.112000000
O    -0.413000000    -5.065000000     7.540000000
H    -0.700000000    -5.867000000     7.978000000
H    -1.125000000    -4.443000000     7.689000000
O     3.084000000    -1.029000000     8.648000000
H     2.944000000    -1.845000000     8.168000000
H     4.017000000    -0.844000000     8.538000000
O    -0.513000000     1.251000000     9.226000000
H    -0.154000000     0.801000000     9.991000000
H    -0.197000000     0.744000000     8.479000000
O     1.162000000    -7.701000000     5.744000000
H     1.174000000    -6.833000000     5.342000000
H     1.452000000    -7.553000000     6.644000000
O     3.888000000     0.505000000     5.528000000
H     3.089000000     0.204000000     5.096000000
H     4.594000000     0.231000000     4.942000000
O     4.529000000    -2.447000000     3.685000000
H     4.133000000    -3.295000000     3.486000000
H     4.210000000    -1.866000000     2.995000000
O     4.442000000    -5.578000000     5.425000000
H     4.645000000    -6.408000000     5.855000000
H     3.699000000    -5.228000000     5.917000000
O     3.176000000     2.906000000     7.110000000
H     3.469000000     2.005000000     6.976000000
H     2.647000000     3.103000000     6.337000000
O     1.064000000     0.039000000     7.318000000
H     1.346000000     0.199000000     6.418000000
H     1.838000000    -0.324000000     7.750000000
O     7.001000000    -3.864000000     4.932000000
H     6.198000000    -3.655000000     4.454000000
H     7.528000000    -4.363000000     4.308000000
O     3.067000000    -4.745000000     2.737000000
H     2.737000000    -4.860000000     3.628000000
H     2.436000000    -5.208000000     2.186000000
O     2.305000000    -4.272000000     8.381000000
H     2.684000000    -3.886000000     7.591000000
H     1.457000000    -4.615000000     8.097000000
O    -0.468000000    -2.253000000     6.817000000
H    -0.330000000    -2.387000000     5.879000000
H     0.017000000    -1.453000000     7.018000000
O     5.473000000    -0.040000000     7.694000000
H     6.119000000    -0.622000000     7.295000000
H     4.919000000     0.238000000     6.965000000
O     1.370000000    -4.837000000     5.164000000
H     1.114000000    -3.956000000     4.891000000
H     0.707000000    -5.090000000     5.807000000
O     2.931000000    -1.124000000     0.224000000
H     2.843000000    -1.975000000    -0.205000000
H     2.127000000    -1.027000000     0.733000000
O     3.009000000    -2.650000000     6.397000000
H     3.667000000    -2.629000000     5.702000000
H     2.335000000    -2.036000000     6.108000000
O     7.202000000     0.353000000     5.381000000
H     7.646000000     0.698000000     6.155000000
H     6.879000000    -0.506000000     5.652000000
