201
-1249.05129
C     4.204000000     3.261000000    -1.339000000
H     3.596000000     4.119000000    -1.064000000
C     3.870000000     2.284000000    -2.300000000
C     4.796000000     1.260000000    -2.619000000
H     4.494000000     0.534000000    -3.369000000
C     2.436000000     2.324000000    -2.888000000
O     1.936000000     3.652000000    -2.811000000
H     1.817000000     1.725000000    -2.204000000
O     2.383000000     1.796000000    -4.259000000
C     1.384000000     0.916000000    -4.484000000
C     1.580000000    -0.441000000    -4.321000000
H     2.564000000    -0.873000000    -4.163000000
C     0.485000000    -1.272000000    -4.397000000
O     0.733000000    -2.603000000    -4.136000000
C    -0.807000000    -0.769000000    -4.622000000
C    -1.920000000    -1.741000000    -4.910000000
H    -2.473000000    -1.344000000    -5.764000000
C    -2.635000000    -2.086000000    -3.614000000
C    -3.637000000    -1.271000000    -3.143000000
H    -3.970000000    -0.451000000    -3.774000000
H    -1.444000000    -2.596000000    -5.394000000
C    -1.004000000     0.573000000    -4.765000000
H    -2.034000000     0.860000000    -4.959000000
C     0.087000000     1.448000000    -4.692000000
C    -0.178000000     2.994000000    -4.739000000
H    -1.034000000     3.294000000    -5.347000000
H     0.660000000     3.579000000    -5.126000000
C    -0.469000000     3.519000000    -3.306000000
C    -1.796000000     3.687000000    -2.891000000
H    -2.576000000     3.467000000    -3.615000000
C     0.615000000     3.816000000    -2.423000000
C     0.342000000     4.246000000    -1.114000000
H     1.149000000     4.491000000    -0.428000000
C    -1.013000000     4.411000000    -0.746000000
O    -1.128000000     4.663000000     0.564000000
C    -1.437000000     3.576000000     1.434000000
C    -0.652000000     3.587000000     2.719000000
C    -1.168000000     3.104000000     3.891000000
H    -2.219000000     2.827000000     3.887000000
C     0.610000000     4.176000000     2.795000000
H     1.096000000     4.639000000     1.939000000
O    -2.894000000     3.515000000     1.569000000
H    -1.055000000     2.653000000     0.972000000
C    -2.090000000     4.067000000    -1.594000000
C    -3.483000000     4.217000000    -1.172000000
H    -4.118000000     4.524000000    -2.005000000
H    -3.665000000     4.956000000    -0.389000000
C    -3.993000000     2.921000000    -0.548000000
C    -4.620000000     1.852000000    -1.256000000
H    -4.797000000     1.987000000    -2.320000000
C    -3.577000000     2.657000000     0.793000000
C    -4.006000000     1.509000000     1.445000000
H    -3.773000000     1.492000000     2.507000000
C    -4.598000000     0.467000000     0.732000000
O    -4.711000000    -0.672000000     1.452000000
C    -3.696000000    -1.689000000     1.203000000
C    -3.272000000    -2.389000000     2.553000000
C    -3.491000000    -1.770000000     3.762000000
H    -4.092000000    -0.868000000     3.855000000
C    -2.423000000    -3.499000000     2.440000000
H    -2.328000000    -4.034000000     1.498000000
O    -4.270000000    -2.577000000     0.262000000
H    -2.832000000    -1.141000000     0.800000000
C    -4.874000000     0.619000000    -0.644000000
C    -5.395000000    -0.562000000    -1.442000000
H    -5.933000000    -0.201000000    -2.321000000
H    -6.095000000    -1.195000000    -0.893000000
C    -4.272000000    -1.471000000    -1.940000000
C    -3.792000000    -2.508000000    -1.102000000
C    -2.780000000    -3.369000000    -1.544000000
H    -2.287000000    -4.056000000    -0.861000000
C    -2.266000000    -3.166000000    -2.797000000
O    -1.085000000    -3.841000000    -3.200000000
C     0.221000000    -3.205000000    -2.970000000
H    -0.032000000    -2.336000000    -2.344000000
C     1.172000000    -4.169000000    -2.362000000
C     2.440000000    -3.675000000    -2.171000000
H     2.775000000    -2.678000000    -2.445000000
C     0.709000000    -5.346000000    -1.821000000
H    -0.353000000    -5.581000000    -1.840000000
C     1.554000000    -6.053000000    -1.043000000
O     1.098000000    -7.110000000    -0.344000000
C     2.892000000    -5.709000000    -0.952000000
H     3.487000000    -6.256000000    -0.225000000
C     3.337000000    -4.509000000    -1.576000000
O     4.622000000    -4.051000000    -1.313000000
C     5.418000000    -3.270000000    -2.153000000
C     5.797000000    -1.983000000    -1.779000000
H     5.492000000    -1.564000000    -0.824000000
C     5.667000000    -3.797000000    -3.404000000
H     5.225000000    -4.655000000    -3.904000000
C     6.381000000    -2.952000000    -4.281000000
H     6.527000000    -3.169000000    -5.336000000
C     6.793000000    -1.695000000    -3.882000000
H     7.349000000    -1.037000000    -4.545000000
C     6.490000000    -1.158000000    -2.602000000
O     6.870000000     0.082000000    -2.153000000
C     5.985000000     1.092000000    -1.969000000
C     6.200000000     2.018000000    -0.962000000
H     7.118000000     1.946000000    -0.384000000
C     5.355000000     3.018000000    -0.620000000
O     5.712000000     3.833000000     0.460000000
C     4.845000000     4.705000000     1.125000000
C     4.032000000     4.208000000     2.215000000
H     3.969000000     3.164000000     2.509000000
C     4.747000000     6.022000000     0.794000000
H     5.217000000     6.391000000    -0.114000000
C     3.940000000     6.856000000     1.563000000
H     3.826000000     7.879000000     1.214000000
C     3.256000000     6.432000000     2.706000000
H     2.559000000     7.001000000     3.316000000
C     3.312000000     5.108000000     3.020000000
O     2.610000000     4.620000000     4.077000000
C     1.313000000     4.200000000     3.958000000
C     0.792000000     3.700000000     5.150000000
H     1.289000000     3.645000000     6.115000000
C    -0.485000000     3.166000000     5.120000000
O    -1.000000000     2.714000000     6.323000000
C    -2.109000000     1.974000000     6.455000000
C    -2.034000000     0.607000000     6.191000000
H    -1.074000000     0.219000000     5.861000000
C    -3.189000000     2.529000000     7.090000000
H    -3.186000000     3.574000000     7.388000000
C    -4.316000000     1.671000000     7.319000000
H    -5.194000000     2.180000000     7.708000000
C    -4.315000000     0.304000000     6.982000000
H    -5.160000000    -0.357000000     7.155000000
C    -3.183000000    -0.262000000     6.339000000
O    -3.098000000    -1.609000000     6.197000000
C    -2.793000000    -2.213000000     4.942000000
C    -2.029000000    -3.332000000     4.862000000
H    -1.487000000    -3.723000000     5.718000000
C    -1.743000000    -3.876000000     3.611000000
O    -0.895000000    -4.955000000     3.549000000
C    -0.891000000    -5.927000000     2.628000000
C    -2.015000000    -6.758000000     2.496000000
H    -2.787000000    -6.809000000     3.259000000
C    -2.036000000    -7.756000000     1.531000000
H    -2.900000000    -8.414000000     1.481000000
C    -0.998000000    -7.810000000     0.596000000
H    -0.975000000    -8.594000000    -0.156000000
C     0.120000000    -6.944000000     0.665000000
C     0.164000000    -6.020000000     1.685000000
H     0.970000000    -5.300000000     1.795000000
O     0.915000000    -7.805000000     5.661000000
H     1.750000000    -7.430000000     5.382000000
H     0.492000000    -8.080000000     4.847000000
O     5.112000000     0.367000000     7.416000000
H     5.123000000    -0.438000000     6.899000000
H     4.644000000     0.130000000     8.217000000
O     4.569000000     2.046000000     5.306000000
H     3.694000000     1.820000000     4.990000000
H     4.649000000     1.585000000     6.141000000
O     2.042000000    -4.948000000     5.702000000
H     1.939000000    -4.057000000     5.370000000
H     2.286000000    -5.464000000     4.934000000
O     0.785000000     0.201000000     8.566000000
H     1.258000000     0.075000000     9.389000000
H    -0.139000000     0.155000000     8.811000000
O     4.920000000    -3.936000000     7.918000000
H     5.286000000    -4.791000000     8.144000000
H     4.918000000    -3.451000000     8.744000000
O     3.327000000    -7.280000000     4.494000000
H     3.556000000    -7.737000000     3.685000000
H     3.764000000    -6.431000000     4.421000000
O     1.979000000     0.642000000     5.528000000
H     2.595000000     0.294000000     6.173000000
H     1.434000000    -0.108000000     5.289000000
O     2.348000000    -3.491000000    10.469000000
H     1.572000000    -3.097000000    10.868000000
H     2.090000000    -3.666000000     9.564000000
O     7.093000000    -4.251000000     4.044000000
H     7.514000000    -5.104000000     3.935000000
H     7.037000000    -4.130000000     4.992000000
O    -1.922000000    -2.587000000     9.257000000
H    -2.135000000    -3.511000000     9.129000000
H    -1.330000000    -2.375000000     8.535000000
O     6.184000000    -5.957000000     1.306000000
H     5.477000000    -5.807000000     1.934000000
H     6.261000000    -5.130000000     0.831000000
O     4.596000000    -0.460000000     3.271000000
H     4.400000000    -0.628000000     4.193000000
H     3.746000000    -0.259000000     2.878000000
O     0.060000000    -2.108000000     7.399000000
H     0.353000000    -1.313000000     7.845000000
H     0.483000000    -2.070000000     6.541000000
O     6.857000000    -2.126000000     2.195000000
H     7.055000000    -2.858000000     2.780000000
H     6.027000000    -1.778000000     2.519000000
O     1.276000000    -4.550000000     8.202000000
H     1.004000000    -3.694000000     7.869000000
H     1.687000000    -4.979000000     7.451000000
O     4.452000000    -4.831000000     3.352000000
H     3.874000000    -4.090000000     3.530000000
H     5.335000000    -4.471000000     3.435000000
O     2.144000000     1.494000000     2.552000000
H     1.674000000     1.438000000     3.384000000
H     1.804000000     0.763000000     2.036000000
O     4.137000000    -1.922000000     5.612000000
H     4.215000000    -2.655000000     6.223000000
H     3.585000000    -2.258000000     4.905000000
