201
-1240.02875
C     4.736000000     2.135000000    -1.992000000
H     4.721000000     3.220000000    -2.050000000
C     3.817000000     1.292000000    -2.633000000
C     4.033000000    -0.108000000    -2.651000000
H     3.294000000    -0.715000000    -3.169000000
C     2.466000000     1.791000000    -3.104000000
O     2.340000000     3.219000000    -3.083000000
H     1.832000000     1.529000000    -2.244000000
O     2.007000000     1.091000000    -4.322000000
C     0.736000000     0.559000000    -4.439000000
C     0.618000000    -0.872000000    -4.394000000
H     1.456000000    -1.560000000    -4.473000000
C    -0.707000000    -1.403000000    -4.205000000
O    -0.821000000    -2.750000000    -4.009000000
C    -1.836000000    -0.566000000    -4.297000000
C    -3.211000000    -1.093000000    -4.274000000
H    -3.913000000    -0.507000000    -4.871000000
C    -3.657000000    -1.203000000    -2.849000000
C    -4.463000000    -0.214000000    -2.347000000
H    -4.627000000     0.670000000    -2.958000000
H    -3.202000000    -2.064000000    -4.772000000
C    -1.649000000     0.810000000    -4.390000000
H    -2.523000000     1.448000000    -4.492000000
C    -0.411000000     1.376000000    -4.428000000
C    -0.225000000     2.897000000    -4.513000000
H    -1.069000000     3.206000000    -5.133000000
H     0.614000000     3.160000000    -5.161000000
C    -0.036000000     3.550000000    -3.197000000
C    -1.193000000     3.999000000    -2.568000000
H    -2.161000000     3.821000000    -3.030000000
C     1.153000000     3.890000000    -2.659000000
C     1.297000000     4.444000000    -1.377000000
H     2.286000000     4.519000000    -0.932000000
C     0.184000000     4.724000000    -0.690000000
O     0.304000000     4.889000000     0.671000000
C    -0.137000000     3.818000000     1.549000000
C     0.876000000     3.562000000     2.707000000
C     0.529000000     2.797000000     3.825000000
H    -0.519000000     2.508000000     3.825000000
C     2.178000000     3.897000000     2.512000000
H     2.532000000     4.403000000     1.618000000
O    -1.451000000     4.108000000     2.101000000
H    -0.309000000     2.951000000     0.894000000
C    -1.085000000     4.620000000    -1.312000000
C    -2.338000000     4.945000000    -0.575000000
H    -3.022000000     5.332000000    -1.334000000
H    -2.232000000     5.819000000     0.071000000
C    -3.017000000     3.860000000     0.227000000
C    -3.990000000     3.005000000    -0.376000000
H    -4.240000000     3.138000000    -1.426000000
C    -2.533000000     3.511000000     1.464000000
C    -3.119000000     2.423000000     2.118000000
H    -2.773000000     2.215000000     3.127000000
C    -4.186000000     1.749000000     1.662000000
O    -4.669000000     0.689000000     2.325000000
C    -4.018000000    -0.572000000     2.006000000
C    -3.527000000    -1.375000000     3.238000000
C    -3.378000000    -0.732000000     4.459000000
H    -3.679000000     0.299000000     4.626000000
C    -2.940000000    -2.636000000     3.074000000
H    -3.089000000    -3.067000000     2.087000000
O    -4.836000000    -1.406000000     1.167000000
H    -3.137000000    -0.280000000     1.417000000
C    -4.516000000     1.955000000     0.311000000
C    -5.432000000     1.014000000    -0.466000000
H    -5.908000000     1.578000000    -1.271000000
H    -6.291000000     0.771000000     0.164000000
C    -4.781000000    -0.215000000    -0.991000000
C    -4.611000000    -1.360000000    -0.177000000
C    -3.901000000    -2.413000000    -0.793000000
H    -3.586000000    -3.302000000    -0.253000000
C    -3.457000000    -2.381000000    -2.103000000
O    -2.580000000    -3.456000000    -2.519000000
C    -1.161000000    -3.135000000    -2.647000000
H    -0.906000000    -2.282000000    -2.001000000
C    -0.333000000    -4.373000000    -2.368000000
C     0.930000000    -4.517000000    -2.955000000
H     1.259000000    -3.862000000    -3.757000000
C    -0.772000000    -5.285000000    -1.457000000
H    -1.732000000    -5.083000000    -0.988000000
C    -0.004000000    -6.365000000    -1.083000000
O    -0.340000000    -7.143000000     0.014000000
C     1.300000000    -6.473000000    -1.667000000
H     1.907000000    -7.279000000    -1.264000000
C     1.728000000    -5.567000000    -2.643000000
O     2.955000000    -5.756000000    -3.278000000
C     3.710000000    -4.729000000    -3.681000000
C     4.269000000    -3.910000000    -2.711000000
H     4.038000000    -4.072000000    -1.662000000
C     3.892000000    -4.472000000    -5.017000000
H     3.461000000    -5.160000000    -5.739000000
C     4.602000000    -3.303000000    -5.384000000
H     4.880000000    -3.018000000    -6.396000000
C     5.220000000    -2.489000000    -4.441000000
H     5.723000000    -1.583000000    -4.770000000
C     5.053000000    -2.806000000    -3.076000000
O     5.434000000    -1.903000000    -2.116000000
C     5.163000000    -0.602000000    -2.073000000
C     6.085000000     0.199000000    -1.372000000
H     6.911000000    -0.278000000    -0.851000000
C     5.881000000     1.596000000    -1.365000000
O     6.688000000     2.458000000    -0.677000000
C     6.188000000     3.453000000     0.115000000
C     5.471000000     3.204000000     1.230000000
H     5.269000000     2.188000000     1.559000000
C     6.603000000     4.763000000    -0.207000000
H     7.226000000     4.890000000    -1.089000000
C     6.213000000     5.798000000     0.627000000
H     6.508000000     6.824000000     0.419000000
C     5.463000000     5.528000000     1.793000000
H     5.162000000     6.344000000     2.446000000
C     5.110000000     4.187000000     2.107000000
O     4.513000000     3.979000000     3.278000000
C     3.180000000     3.496000000     3.426000000
C     2.850000000     2.664000000     4.569000000
H     3.637000000     2.341000000     5.246000000
C     1.507000000     2.272000000     4.698000000
O     1.169000000     1.602000000     5.873000000
C    -0.131000000     1.518000000     6.448000000
C    -0.756000000     0.301000000     6.590000000
H    -0.293000000    -0.638000000     6.297000000
C    -0.918000000     2.678000000     6.535000000
H    -0.508000000     3.646000000     6.258000000
C    -2.292000000     2.684000000     6.864000000
H    -2.847000000     3.617000000     6.921000000
C    -2.879000000     1.455000000     7.054000000
H    -3.908000000     1.294000000     7.367000000
C    -2.131000000     0.274000000     6.895000000
O    -2.759000000    -0.903000000     6.765000000
C    -2.821000000    -1.432000000     5.547000000
C    -2.326000000    -2.701000000     5.391000000
H    -1.855000000    -3.146000000     6.264000000
C    -2.294000000    -3.258000000     4.114000000
O    -1.796000000    -4.527000000     3.851000000
C    -2.113000000    -5.385000000     2.865000000
C    -3.351000000    -5.819000000     2.744000000
H    -4.141000000    -5.549000000     3.440000000
C    -3.649000000    -6.839000000     1.787000000
H    -4.647000000    -7.230000000     1.607000000
C    -2.708000000    -7.379000000     0.919000000
H    -2.979000000    -8.082000000     0.136000000
C    -1.398000000    -6.765000000     0.928000000
C    -1.186000000    -5.758000000     1.910000000
H    -0.202000000    -5.296000000     1.938000000
O    -1.218000000    -7.983000000     4.468000000
H    -0.627000000    -7.230000000     4.481000000
H    -2.095000000    -7.599000000     4.474000000
O    -2.177000000    -5.516000000     8.093000000
H    -1.253000000    -5.613000000     7.861000000
H    -2.604000000    -6.276000000     7.698000000
O     4.726000000    -4.032000000     0.813000000
H     4.941000000    -3.114000000     0.977000000
H     5.136000000    -4.506000000     1.537000000
O     3.568000000    -6.229000000     8.297000000
H     3.113000000    -6.332000000     9.133000000
H     3.574000000    -5.284000000     8.143000000
O     6.684000000    -5.273000000     3.375000000
H     7.087000000    -6.015000000     3.825000000
H     7.423000000    -4.738000000     3.084000000
O     5.031000000    -7.329000000     0.874000000
H     5.095000000    -6.721000000     0.139000000
H     4.115000000    -7.279000000     1.148000000
O     0.258000000    -5.785000000     7.342000000
H     0.591000000    -6.043000000     6.482000000
H     0.594000000    -6.452000000     7.939000000
O     5.222000000    -1.328000000     1.969000000
H     5.178000000    -1.904000000     2.732000000
H     4.480000000    -0.733000000     2.075000000
O     3.818000000    -3.595000000     7.736000000
H     3.416000000    -3.194000000     8.507000000
H     3.523000000    -3.054000000     7.003000000
O    -1.110000000    -1.880000000     9.495000000
H    -1.952000000    -2.326000000     9.583000000
H    -0.605000000    -2.436000000     8.901000000
O     2.196000000    -2.233000000     9.505000000
H     1.872000000    -2.335000000    10.400000000
H     1.486000000    -2.560000000     8.953000000
O     3.342000000    -1.107000000     5.885000000
H     2.448000000    -1.415000000     5.737000000
H     3.860000000    -1.538000000     5.205000000
O     2.671000000    -5.779000000     1.708000000
H     2.411000000    -5.166000000     2.395000000
H     3.178000000    -5.249000000     1.093000000
O     3.969000000    -7.125000000     4.358000000
H     4.887000000    -6.945000000     4.159000000
H     3.574000000    -7.322000000     3.508000000
O     0.489000000    -2.998000000     7.544000000
H     0.176000000    -3.902000000     7.543000000
H     0.690000000    -2.812000000     6.627000000
O     0.936000000    -6.217000000     4.541000000
H     1.273000000    -5.407000000     4.157000000
H     1.710000000    -6.767000000     4.660000000
O     3.024000000     0.364000000     2.383000000
H     2.860000000     1.049000000     3.031000000
H     2.151000000     0.064000000     2.127000000
O     4.487000000    -2.884000000     4.146000000
H     3.707000000    -3.439000000     4.106000000
H     5.057000000    -3.319000000     4.780000000
O     3.433000000     0.538000000     8.460000000
H     2.942000000    -0.055000000     7.891000000
H     3.475000000     0.083000000     9.301000000
