201
-1233.72385
C     3.982000000     3.242000000    -1.847000000
H     3.394000000     4.133000000    -1.646000000
C     3.460000000     2.246000000    -2.665000000
C     4.179000000     1.079000000    -2.916000000
H     3.890000000     0.277000000    -3.590000000
C     2.061000000     2.355000000    -3.141000000
O     1.499000000     3.674000000    -3.121000000
H     1.475000000     1.799000000    -2.395000000
O     1.755000000     1.630000000    -4.376000000
C     0.648000000     0.875000000    -4.666000000
C     0.704000000    -0.538000000    -4.572000000
H     1.700000000    -0.928000000    -4.379000000
C    -0.342000000    -1.455000000    -4.611000000
O    -0.094000000    -2.813000000    -4.448000000
C    -1.599000000    -0.845000000    -4.651000000
C    -2.883000000    -1.667000000    -4.413000000
H    -3.767000000    -1.218000000    -4.870000000
C    -3.192000000    -2.073000000    -2.996000000
C    -4.120000000    -1.225000000    -2.280000000
H    -4.623000000    -0.390000000    -2.761000000
H    -2.765000000    -2.585000000    -4.992000000
C    -1.717000000     0.543000000    -4.760000000
H    -2.702000000     1.002000000    -4.735000000
C    -0.657000000     1.425000000    -4.608000000
C    -0.945000000     2.906000000    -4.625000000
H    -1.898000000     3.153000000    -5.097000000
H    -0.146000000     3.455000000    -5.128000000
C    -0.897000000     3.454000000    -3.198000000
C    -2.080000000     3.493000000    -2.498000000
H    -2.960000000     3.177000000    -3.053000000
C     0.287000000     3.831000000    -2.512000000
C     0.243000000     4.181000000    -1.213000000
H     1.149000000     4.364000000    -0.642000000
C    -0.999000000     4.401000000    -0.606000000
O    -0.967000000     4.842000000     0.722000000
C    -1.007000000     3.712000000     1.653000000
C    -0.059000000     3.715000000     2.788000000
C    -0.272000000     3.132000000     4.041000000
H    -1.264000000     2.720000000     4.207000000
C     1.170000000     4.425000000     2.643000000
H     1.410000000     4.930000000     1.711000000
O    -2.352000000     3.654000000     2.117000000
H    -0.852000000     2.817000000     1.031000000
C    -2.203000000     4.061000000    -1.256000000
C    -3.561000000     4.113000000    -0.561000000
H    -4.327000000     4.184000000    -1.336000000
H    -3.733000000     5.021000000     0.020000000
C    -3.754000000     2.882000000     0.311000000
C    -4.460000000     1.786000000    -0.245000000
H    -4.754000000     1.953000000    -1.278000000
C    -3.220000000     2.728000000     1.564000000
C    -3.477000000     1.502000000     2.253000000
H    -3.094000000     1.347000000     3.259000000
C    -4.236000000     0.467000000     1.725000000
O    -4.347000000    -0.753000000     2.353000000
C    -3.400000000    -1.753000000     1.963000000
C    -2.959000000    -2.508000000     3.244000000
C    -2.546000000    -1.787000000     4.358000000
H    -2.653000000    -0.706000000     4.384000000
C    -2.847000000    -3.904000000     3.220000000
H    -3.187000000    -4.423000000     2.328000000
O    -3.918000000    -2.664000000     1.010000000
H    -2.553000000    -1.202000000     1.529000000
C    -4.689000000     0.606000000     0.399000000
C    -5.453000000    -0.525000000    -0.277000000
H    -5.983000000    -0.164000000    -1.161000000
H    -6.089000000    -1.027000000     0.455000000
C    -4.447000000    -1.457000000    -0.984000000
C    -3.793000000    -2.484000000    -0.354000000
C    -2.976000000    -3.439000000    -1.079000000
H    -2.379000000    -4.140000000    -0.502000000
C    -2.646000000    -3.202000000    -2.398000000
O    -1.635000000    -4.022000000    -2.976000000
C    -0.325000000    -3.313000000    -3.083000000
H    -0.371000000    -2.401000000    -2.469000000
C     0.799000000    -4.136000000    -2.466000000
C     2.062000000    -4.113000000    -3.089000000
H     2.164000000    -3.586000000    -4.034000000
C     0.575000000    -4.882000000    -1.297000000
H    -0.353000000    -4.884000000    -0.731000000
C     1.613000000    -5.600000000    -0.758000000
O     1.320000000    -6.295000000     0.388000000
C     2.898000000    -5.548000000    -1.321000000
H     3.810000000    -6.023000000    -0.968000000
C     3.037000000    -4.870000000    -2.528000000
O     4.302000000    -4.807000000    -3.057000000
C     4.889000000    -3.673000000    -3.551000000
C     5.256000000    -2.638000000    -2.733000000
H     5.475000000    -2.887000000    -1.698000000
C     4.904000000    -3.480000000    -4.969000000
H     4.485000000    -4.201000000    -5.666000000
C     5.165000000    -2.236000000    -5.428000000
H     5.251000000    -2.085000000    -6.502000000
C     5.684000000    -1.223000000    -4.580000000
H     6.031000000    -0.377000000    -5.168000000
C     5.701000000    -1.421000000    -3.238000000
O     6.073000000    -0.325000000    -2.351000000
C     5.413000000     0.890000000    -2.287000000
C     5.979000000     1.902000000    -1.470000000
H     6.893000000     1.889000000    -0.882000000
C     5.213000000     3.053000000    -1.258000000
O     5.833000000     3.936000000    -0.451000000
C     5.148000000     4.854000000     0.275000000
C     4.697000000     4.597000000     1.558000000
H     4.958000000     3.609000000     1.930000000
C     4.959000000     6.089000000    -0.232000000
H     5.346000000     6.427000000    -1.190000000
C     4.355000000     7.140000000     0.531000000
H     4.462000000     8.162000000     0.176000000
C     3.779000000     6.811000000     1.759000000
H     3.346000000     7.474000000     2.504000000
C     3.885000000     5.521000000     2.193000000
O     3.319000000     5.193000000     3.411000000
C     2.161000000     4.401000000     3.573000000
C     1.776000000     3.888000000     4.844000000
H     2.411000000     4.162000000     5.683000000
C     0.571000000     3.313000000     5.129000000
O     0.125000000     2.957000000     6.376000000
C    -0.857000000     2.033000000     6.666000000
C    -0.626000000     0.654000000     6.410000000
H     0.260000000     0.407000000     5.830000000
C    -2.046000000     2.453000000     7.286000000
H    -2.149000000     3.527000000     7.417000000
C    -3.056000000     1.489000000     7.606000000
H    -3.999000000     1.786000000     8.058000000
C    -2.809000000     0.176000000     7.329000000
H    -3.557000000    -0.537000000     7.665000000
C    -1.630000000    -0.268000000     6.651000000
O    -1.470000000    -1.608000000     6.463000000
C    -1.946000000    -2.386000000     5.425000000
C    -1.690000000    -3.791000000     5.341000000
H    -1.109000000    -4.208000000     6.160000000
C    -2.128000000    -4.548000000     4.240000000
O    -1.771000000    -5.886000000     4.023000000
C    -1.434000000    -6.405000000     2.773000000
C    -2.297000000    -7.234000000     2.161000000
H    -3.102000000    -7.571000000     2.809000000
C    -2.090000000    -7.616000000     0.837000000
H    -2.792000000    -8.235000000     0.284000000
C    -0.917000000    -7.302000000     0.146000000
H    -0.788000000    -7.623000000    -0.885000000
C     0.092000000    -6.623000000     0.893000000
C    -0.199000000    -6.059000000     2.131000000
H     0.490000000    -5.334000000     2.556000000
O     6.167000000    -1.774000000     7.030000000
H     5.391000000    -2.133000000     6.599000000
H     6.385000000    -0.994000000     6.519000000
O     6.891000000    -4.231000000     4.951000000
H     6.727000000    -3.308000000     5.144000000
H     6.446000000    -4.384000000     4.117000000
O     5.463000000    -3.251000000     2.575000000
H     4.560000000    -3.483000000     2.792000000
H     5.381000000    -2.548000000     1.931000000
O     4.905000000    -1.339000000     0.779000000
H     4.760000000    -0.544000000     1.292000000
H     4.282000000    -1.275000000     0.055000000
O     0.429000000    -5.867000000     7.241000000
H     0.711000000    -4.953000000     7.294000000
H     0.863000000    -6.294000000     7.979000000
O     4.095000000    -3.555000000     5.866000000
H     3.892000000    -4.418000000     6.228000000
H     3.668000000    -3.548000000     5.009000000
O     3.312000000    -0.413000000     5.467000000
H     2.969000000    -0.311000000     6.354000000
H     2.810000000    -1.140000000     5.098000000
O    -0.095000000    -8.132000000     5.318000000
H    -0.596000000    -7.442000000     4.882000000
H     0.436000000    -7.669000000     5.966000000
O     3.385000000    -8.270000000     5.437000000
H     2.745000000    -8.402000000     4.737000000
H     4.170000000    -7.957000000     4.988000000
O     3.505000000     1.483000000     3.564000000
H     3.290000000     0.929000000     4.314000000
H     4.240000000     2.018000000     3.864000000
O     3.464000000    -8.819000000     2.631000000
H     3.481000000    -9.687000000     2.227000000
H     4.128000000    -8.320000000     2.154000000
O     6.769000000    -4.773000000     0.595000000
H     6.637000000    -5.715000000     0.704000000
H     6.270000000    -4.376000000     1.309000000
O     3.695000000    -5.962000000     1.801000000
H     3.329000000    -5.221000000     2.284000000
H     2.931000000    -6.467000000     1.523000000
O     0.961000000    -2.594000000     7.066000000
H     1.485000000    -2.635000000     6.266000000
H     0.103000000    -2.285000000     6.774000000
O     3.551000000    -1.980000000     9.386000000
H     4.089000000    -1.458000000     8.791000000
H     3.964000000    -2.843000000     9.388000000
O     3.020000000     0.811000000     1.001000000
H     2.093000000     0.588000000     0.921000000
H     3.125000000     1.075000000     1.916000000
O     5.798000000    -7.082000000     3.081000000
H     6.317000000    -7.304000000     2.308000000
H     5.098000000    -6.521000000     2.747000000
O     3.588000000    -5.859000000     7.012000000
H     3.026000000    -5.814000000     7.786000000
H     3.228000000    -6.580000000     6.496000000
O     6.057000000    -1.227000000     4.290000000
H     6.087000000    -1.865000000     3.577000000
H     5.213000000    -0.788000000     4.183000000
