201
-1264.68628
C     3.583000000     2.518000000    -1.539000000
H     2.847000000     3.146000000    -1.043000000
C     3.238000000     1.736000000    -2.607000000
C     4.106000000     0.817000000    -3.076000000
H     3.759000000     0.062000000    -3.777000000
C     1.785000000     1.829000000    -3.091000000
O     1.390000000     3.189000000    -3.389000000
H     1.079000000     1.390000000    -2.370000000
O     1.650000000     1.129000000    -4.352000000
C     0.512000000     0.359000000    -4.502000000
C     0.715000000    -1.006000000    -4.437000000
H     1.713000000    -1.391000000    -4.241000000
C    -0.392000000    -1.848000000    -4.403000000
O    -0.213000000    -3.186000000    -4.140000000
C    -1.722000000    -1.324000000    -4.462000000
C    -2.961000000    -2.140000000    -4.290000000
H    -3.774000000    -1.619000000    -4.801000000
C    -3.267000000    -2.340000000    -2.804000000
C    -4.275000000    -1.483000000    -2.271000000
H    -4.714000000    -0.656000000    -2.824000000
H    -2.881000000    -3.031000000    -4.916000000
C    -1.859000000     0.041000000    -4.723000000
H    -2.872000000     0.431000000    -4.781000000
C    -0.757000000     0.898000000    -4.733000000
C    -1.013000000     2.395000000    -4.885000000
H    -1.928000000     2.542000000    -5.462000000
H    -0.258000000     2.894000000    -5.496000000
C    -1.030000000     3.101000000    -3.530000000
C    -2.280000000     3.274000000    -2.913000000
H    -3.174000000     2.884000000    -3.393000000
C     0.125000000     3.587000000    -2.887000000
C     0.006000000     4.219000000    -1.649000000
H     0.910000000     4.504000000    -1.116000000
C    -1.223000000     4.250000000    -0.972000000
O    -1.217000000     4.673000000     0.291000000
C    -1.374000000     3.794000000     1.435000000
C    -0.548000000     4.305000000     2.574000000
C    -0.810000000     4.001000000     3.883000000
H    -1.695000000     3.446000000     4.182000000
C     0.667000000     4.979000000     2.235000000
H     0.987000000     5.170000000     1.215000000
O    -2.809000000     3.676000000     1.832000000
H    -1.096000000     2.750000000     1.226000000
C    -2.366000000     3.784000000    -1.568000000
C    -3.696000000     3.955000000    -0.858000000
H    -4.487000000     4.213000000    -1.565000000
H    -3.597000000     4.856000000    -0.249000000
C    -4.066000000     2.811000000     0.046000000
C    -4.743000000     1.674000000    -0.422000000
H    -4.964000000     1.657000000    -1.486000000
C    -3.605000000     2.708000000     1.363000000
C    -3.763000000     1.541000000     2.149000000
H    -3.319000000     1.444000000     3.136000000
C    -4.494000000     0.450000000     1.713000000
O    -4.468000000    -0.739000000     2.507000000
C    -3.533000000    -1.798000000     2.062000000
C    -2.866000000    -2.366000000     3.289000000
C    -2.377000000    -1.395000000     4.180000000
H    -2.598000000    -0.342000000     4.024000000
C    -2.453000000    -3.694000000     3.382000000
H    -2.698000000    -4.310000000     2.520000000
O    -4.289000000    -2.810000000     1.296000000
H    -2.796000000    -1.401000000     1.347000000
C    -5.007000000     0.545000000     0.365000000
C    -5.622000000    -0.732000000    -0.210000000
H    -6.380000000    -0.609000000    -0.986000000
H    -6.183000000    -1.314000000     0.524000000
C    -4.651000000    -1.651000000    -0.915000000
C    -4.114000000    -2.693000000    -0.122000000
C    -3.104000000    -3.414000000    -0.671000000
H    -2.602000000    -4.100000000     0.005000000
C    -2.623000000    -3.249000000    -1.951000000
O    -1.605000000    -4.099000000    -2.338000000
C    -0.367000000    -3.532000000    -2.714000000
H    -0.294000000    -2.554000000    -2.216000000
C     0.782000000    -4.359000000    -2.154000000
C     1.996000000    -4.300000000    -2.816000000
H     1.981000000    -3.961000000    -3.849000000
C     0.693000000    -4.892000000    -0.865000000
H    -0.248000000    -4.812000000    -0.327000000
C     1.879000000    -5.261000000    -0.257000000
O     1.962000000    -5.682000000     1.068000000
C     3.117000000    -5.178000000    -0.908000000
H     4.015000000    -5.522000000    -0.400000000
C     3.169000000    -4.728000000    -2.200000000
O     4.373000000    -4.640000000    -2.840000000
C     4.898000000    -3.569000000    -3.513000000
C     5.286000000    -2.363000000    -2.898000000
H     5.142000000    -2.172000000    -1.838000000
C     5.070000000    -3.661000000    -4.924000000
H     4.859000000    -4.631000000    -5.367000000
C     5.746000000    -2.682000000    -5.664000000
H     5.830000000    -2.728000000    -6.746000000
C     6.217000000    -1.541000000    -5.004000000
H     6.823000000    -0.804000000    -5.525000000
C     5.914000000    -1.408000000    -3.655000000
O     6.286000000    -0.259000000    -2.954000000
C     5.437000000     0.766000000    -2.632000000
C     5.812000000     1.561000000    -1.635000000
H     6.875000000     1.633000000    -1.419000000
C     4.896000000     2.475000000    -1.052000000
O     5.272000000     3.288000000     0.001000000
C     4.685000000     4.453000000     0.270000000
C     3.989000000     4.634000000     1.490000000
H     3.875000000     3.756000000     2.121000000
C     4.919000000     5.514000000    -0.502000000
H     5.500000000     5.334000000    -1.402000000
C     4.347000000     6.752000000    -0.203000000
H     4.528000000     7.559000000    -0.908000000
C     3.693000000     7.021000000     0.956000000
H     3.452000000     8.015000000     1.326000000
C     3.473000000     5.923000000     1.847000000
O     2.764000000     6.106000000     3.023000000
C     1.583000000     5.365000000     3.248000000
C     1.290000000     5.057000000     4.576000000
H     2.030000000     5.397000000     5.296000000
C     0.172000000     4.327000000     4.868000000
O    -0.129000000     3.911000000     6.205000000
C    -0.967000000     2.844000000     6.411000000
C    -0.546000000     1.587000000     6.023000000
H     0.415000000     1.488000000     5.526000000
C    -2.152000000     3.022000000     7.062000000
H    -2.431000000     4.031000000     7.353000000
C    -2.988000000     1.941000000     7.350000000
H    -3.995000000     2.040000000     7.748000000
C    -2.574000000     0.660000000     6.906000000
H    -3.228000000    -0.175000000     7.141000000
C    -1.394000000     0.477000000     6.295000000
O    -0.883000000    -0.806000000     6.063000000
C    -1.502000000    -1.768000000     5.257000000
C    -1.197000000    -3.152000000     5.337000000
H    -0.444000000    -3.398000000     6.081000000
C    -1.671000000    -4.127000000     4.465000000
O    -1.308000000    -5.451000000     4.539000000
C    -0.743000000    -6.052000000     3.467000000
C    -1.199000000    -7.315000000     3.232000000
H    -1.991000000    -7.792000000     3.804000000
C    -0.679000000    -8.046000000     2.173000000
H    -0.962000000    -9.039000000     1.834000000
C     0.370000000    -7.418000000     1.413000000
H     0.827000000    -7.941000000     0.576000000
C     0.871000000    -6.183000000     1.762000000
C     0.286000000    -5.455000000     2.758000000
H     0.651000000    -4.440000000     2.893000000
O     5.276000000     0.452000000     7.193000000
H     6.011000000     0.781000000     6.675000000
H     5.042000000    -0.377000000     6.776000000
O     3.864000000    -6.727000000     5.200000000
H     4.081000000    -6.808000000     4.271000000
H     4.471000000    -6.067000000     5.532000000
O     7.687000000    -5.640000000     4.495000000
H     6.753000000    -5.436000000     4.544000000
H     7.773000000    -6.184000000     3.712000000
O     7.485000000    -2.389000000     3.078000000
H     7.257000000    -3.162000000     3.595000000
H     7.505000000    -2.703000000     2.174000000
O     6.506000000     1.414000000     1.829000000
H     6.104000000     0.548000000     1.767000000
H     5.951000000     1.976000000     1.288000000
O     3.845000000    -2.635000000     8.119000000
H     4.795000000    -2.719000000     8.037000000
H     3.595000000    -2.039000000     7.413000000
O     1.119000000    -7.515000000     6.136000000
H     0.414000000    -6.883000000     6.276000000
H     1.782000000    -7.029000000     5.645000000
O     5.327000000    -0.989000000     2.721000000
H     6.235000000    -1.101000000     3.000000000
H     5.026000000    -1.876000000     2.524000000
O     6.698000000    -8.246000000     2.854000000
H     6.378000000    -8.967000000     2.312000000
H     5.977000000    -7.616000000     2.864000000
O     3.759000000    -1.322000000     5.660000000
H     3.490000000    -0.418000000     5.501000000
H     3.573000000    -1.776000000     4.838000000
O     1.126000000    -1.711000000     7.921000000
H     1.922000000    -2.106000000     8.277000000
H     1.394000000    -1.353000000     7.075000000
O     2.924000000     1.315000000     4.933000000
H     3.383000000     2.155000000     4.965000000
H     2.533000000     1.290000000     4.059000000
O     3.670000000    -9.222000000     2.741000000
H     3.672000000    -8.969000000     1.818000000
H     3.330000000    -8.454000000     3.200000000
O     6.481000000    -3.371000000     0.521000000
H     6.654000000    -4.253000000     0.193000000
H     5.610000000    -3.428000000     0.914000000
O     4.591000000    -6.405000000     2.420000000
H     4.018000000    -5.639000000     2.448000000
H     4.739000000    -6.559000000     1.487000000
O     1.841000000    -4.612000000     5.947000000
H     2.058000000    -3.836000000     5.430000000
H     2.670000000    -5.083000000     6.031000000
O     7.769000000    -1.213000000    -0.505000000
H     7.003000000    -0.727000000    -0.808000000
H     7.426000000    -2.071000000    -0.256000000
O     3.243000000     1.012000000     2.205000000
H     2.755000000     0.391000000     1.664000000
H     4.080000000     0.578000000     2.372000000
O     5.097000000    -4.102000000     4.713000000
H     4.302000000    -3.765000000     4.301000000
H     5.256000000    -3.509000000     5.448000000
