201
-1237.73616
C     3.523000000     2.316000000    -1.254000000
H     2.840000000     3.157000000    -1.172000000
C     3.299000000     1.304000000    -2.304000000
C     4.243000000     0.314000000    -2.378000000
H     4.098000000    -0.462000000    -3.126000000
C     2.015000000     1.225000000    -3.049000000
O     1.590000000     2.521000000    -3.569000000
H     1.181000000     0.890000000    -2.415000000
O     2.116000000     0.384000000    -4.195000000
C     1.110000000    -0.508000000    -4.500000000
C     1.344000000    -1.838000000    -4.143000000
H     2.300000000    -2.103000000    -3.699000000
C     0.266000000    -2.697000000    -4.050000000
O     0.532000000    -3.892000000    -3.479000000
C    -1.031000000    -2.295000000    -4.398000000
C    -2.252000000    -3.177000000    -4.131000000
H    -3.056000000    -2.850000000    -4.794000000
C    -2.711000000    -2.978000000    -2.691000000
C    -3.689000000    -1.996000000    -2.344000000
H    -4.163000000    -1.309000000    -3.039000000
H    -1.995000000    -4.213000000    -4.359000000
C    -1.157000000    -0.998000000    -4.955000000
H    -2.137000000    -0.629000000    -5.246000000
C    -0.127000000    -0.083000000    -4.961000000
C    -0.416000000     1.417000000    -5.258000000
H    -1.190000000     1.474000000    -6.026000000
H     0.460000000     1.897000000    -5.700000000
C    -0.776000000     2.298000000    -4.079000000
C    -2.103000000     2.595000000    -3.798000000
H    -2.908000000     2.080000000    -4.317000000
C     0.245000000     2.884000000    -3.393000000
C    -0.038000000     3.811000000    -2.329000000
H     0.772000000     4.329000000    -1.821000000
C    -1.401000000     3.973000000    -2.062000000
O    -1.796000000     4.655000000    -0.956000000
C    -1.826000000     4.045000000     0.345000000
C    -0.927000000     4.736000000     1.363000000
C    -1.214000000     4.666000000     2.680000000
H    -2.014000000     3.992000000     2.975000000
C     0.146000000     5.512000000     0.995000000
H     0.482000000     5.601000000    -0.035000000
O    -3.227000000     3.973000000     0.748000000
H    -1.443000000     3.014000000     0.306000000
C    -2.436000000     3.404000000    -2.752000000
C    -3.858000000     3.463000000    -2.235000000
H    -4.559000000     3.205000000    -3.031000000
H    -4.159000000     4.465000000    -1.921000000
C    -4.165000000     2.551000000    -1.048000000
C    -4.689000000     1.304000000    -1.365000000
H    -4.795000000     1.055000000    -2.418000000
C    -3.890000000     2.804000000     0.315000000
C    -4.202000000     1.962000000     1.348000000
H    -4.069000000     2.128000000     2.414000000
C    -4.680000000     0.674000000     0.963000000
O    -4.727000000    -0.253000000     1.949000000
C    -3.755000000    -1.359000000     1.903000000
C    -3.076000000    -1.670000000     3.232000000
C    -2.787000000    -0.569000000     3.996000000
H    -3.119000000     0.419000000     3.689000000
C    -2.657000000    -2.965000000     3.634000000
H    -2.751000000    -3.871000000     3.040000000
O    -4.097000000    -2.592000000     1.230000000
H    -2.893000000    -0.902000000     1.394000000
C    -4.875000000     0.345000000    -0.355000000
C    -5.431000000    -1.051000000    -0.761000000
H    -6.173000000    -0.978000000    -1.559000000
H    -5.972000000    -1.474000000     0.088000000
C    -4.305000000    -1.999000000    -1.081000000
C    -3.774000000    -2.826000000    -0.079000000
C    -2.595000000    -3.523000000    -0.325000000
H    -2.020000000    -4.059000000     0.426000000
C    -2.196000000    -3.747000000    -1.668000000
O    -1.060000000    -4.507000000    -1.875000000
C     0.214000000    -3.823000000    -2.017000000
H     0.048000000    -2.763000000    -1.774000000
C     1.325000000    -4.509000000    -1.225000000
C     2.610000000    -4.702000000    -1.670000000
H     2.900000000    -4.499000000    -2.698000000
C     1.070000000    -4.894000000     0.092000000
H     0.070000000    -4.903000000     0.518000000
C     2.057000000    -5.515000000     0.830000000
O     1.848000000    -6.041000000     2.124000000
C     3.288000000    -5.566000000     0.445000000
H     4.061000000    -5.949000000     1.107000000
C     3.580000000    -5.247000000    -0.830000000
O     4.927000000    -5.295000000    -1.341000000
C     5.385000000    -4.165000000    -2.079000000
C     5.456000000    -2.911000000    -1.477000000
H     5.021000000    -2.682000000    -0.507000000
C     5.952000000    -4.397000000    -3.318000000
H     5.976000000    -5.406000000    -3.721000000
C     6.714000000    -3.393000000    -3.949000000
H     7.026000000    -3.625000000    -4.964000000
C     6.842000000    -2.115000000    -3.301000000
H     7.234000000    -1.249000000    -3.828000000
C     6.156000000    -1.915000000    -2.131000000
O     6.237000000    -0.732000000    -1.515000000
C     5.317000000     0.277000000    -1.540000000
C     5.571000000     1.238000000    -0.660000000
H     6.493000000     1.236000000    -0.084000000
C     4.722000000     2.344000000    -0.572000000
O     5.010000000     3.330000000     0.366000000
C     4.572000000     4.650000000     0.221000000
C     3.392000000     5.099000000     0.935000000
H     2.784000000     4.366000000     1.458000000
C     5.304000000     5.650000000    -0.477000000
H     6.218000000     5.356000000    -0.987000000
C     4.860000000     6.939000000    -0.625000000
H     5.331000000     7.712000000    -1.227000000
C     3.744000000     7.363000000     0.104000000
H     3.493000000     8.419000000     0.162000000
C     2.975000000     6.420000000     0.828000000
O     1.918000000     6.994000000     1.604000000
C     0.839000000     6.237000000     1.951000000
C     0.590000000     6.133000000     3.299000000
H     1.168000000     6.661000000     4.053000000
C    -0.474000000     5.296000000     3.680000000
O    -0.703000000     4.969000000     5.054000000
C    -1.600000000     3.962000000     5.374000000
C    -1.177000000     2.621000000     5.477000000
H    -0.153000000     2.330000000     5.261000000
C    -2.794000000     4.302000000     6.035000000
H    -3.101000000     5.336000000     6.168000000
C    -3.684000000     3.355000000     6.474000000
H    -4.697000000     3.576000000     6.800000000
C    -3.291000000     2.004000000     6.495000000
H    -3.997000000     1.242000000     6.814000000
C    -2.067000000     1.641000000     5.910000000
O    -1.655000000     0.304000000     6.027000000
C    -2.090000000    -0.740000000     5.202000000
C    -1.686000000    -2.016000000     5.573000000
H    -1.084000000    -2.152000000     6.468000000
C    -1.912000000    -3.111000000     4.807000000
O    -1.554000000    -4.416000000     5.175000000
C    -1.109000000    -5.366000000     4.285000000
C    -1.920000000    -6.499000000     3.950000000
H    -2.844000000    -6.641000000     4.504000000
C    -1.438000000    -7.417000000     3.066000000
H    -1.996000000    -8.332000000     2.887000000
C    -0.181000000    -7.234000000     2.405000000
H     0.231000000    -8.077000000     1.855000000
C     0.607000000    -6.145000000     2.768000000
C     0.122000000    -5.114000000     3.604000000
H     0.782000000    -4.267000000     3.773000000
O     2.907000000    -3.753000000     5.668000000
H     3.758000000    -3.519000000     6.039000000
H     2.331000000    -3.030000000     5.916000000
O     7.190000000     4.255000000     5.019000000
H     6.422000000     4.162000000     5.583000000
H     6.899000000     4.831000000     4.312000000
O     8.897000000     2.246000000     6.050000000
H     8.291000000     1.790000000     6.635000000
H     8.373000000     2.947000000     5.663000000
O     6.806000000     1.065000000     7.430000000
H     6.439000000     0.425000000     6.820000000
H     6.156000000     1.767000000     7.460000000
O     5.741000000     3.745000000     7.548000000
H     4.963000000     3.376000000     7.964000000
H     6.256000000     4.099000000     8.273000000
O     5.672000000    -1.294000000     1.651000000
H     5.450000000    -0.728000000     0.911000000
H     5.342000000    -0.825000000     2.418000000
O     1.296000000    -1.648000000     6.472000000
H     1.093000000    -1.470000000     7.391000000
H     1.336000000    -0.783000000     6.064000000
O     2.368000000     1.257000000     6.787000000
H     2.580000000     1.181000000     5.856000000
H     3.053000000     1.823000000     7.143000000
O     7.297000000    -2.113000000     4.709000000
H     6.929000000    -2.618000000     3.983000000
H     6.668000000    -1.405000000     4.851000000
O     3.923000000     2.424000000     8.983000000
H     3.031000000     2.714000000     9.176000000
H     4.057000000     1.667000000     9.552000000
O     5.490000000     6.407000000     6.616000000
H     4.673000000     6.221000000     6.154000000
H     5.524000000     5.755000000     7.315000000
O     5.557000000     0.344000000     5.250000000
H     4.827000000     0.163000000     4.658000000
H     6.047000000     1.044000000     4.819000000
O     0.645000000     2.063000000     8.830000000
H     0.828000000     1.465000000     8.106000000
H     0.713000000     1.518000000     9.614000000
O     7.619000000    -3.248000000     1.227000000
H     6.826000000    -2.723000000     1.342000000
H     8.188000000    -2.706000000     0.681000000
O     5.660000000     5.514000000     3.498000000
H     4.732000000     5.290000000     3.571000000
H     5.663000000     6.432000000     3.225000000
O     5.046000000    -3.756000000     3.289000000
H     4.119000000    -3.830000000     3.515000000
H     5.055000000    -3.239000000     2.483000000
O     6.284000000     1.513000000     2.307000000
H     5.390000000     1.287000000     2.562000000
H     6.197000000     2.341000000     1.834000000
O     8.942000000     0.874000000     2.853000000
H     9.363000000     1.717000000     2.681000000
H     8.005000000     1.071000000     2.855000000
O     2.919000000     4.471000000     4.241000000
H     2.655000000     4.694000000     5.134000000
H     2.914000000     3.514000000     4.221000000
