201
-1260.65941
C     3.521000000     3.220000000    -1.662000000
H     2.904000000     3.995000000    -1.215000000
C     2.992000000     2.340000000    -2.626000000
C     3.792000000     1.262000000    -2.971000000
H     3.447000000     0.475000000    -3.637000000
C     1.539000000     2.411000000    -2.986000000
O     1.045000000     3.769000000    -3.022000000
H     0.937000000     1.915000000    -2.210000000
O     1.325000000     1.720000000    -4.246000000
C     0.225000000     0.911000000    -4.506000000
C     0.484000000    -0.431000000    -4.366000000
H     1.479000000    -0.832000000    -4.194000000
C    -0.576000000    -1.322000000    -4.369000000
O    -0.224000000    -2.625000000    -4.164000000
C    -1.899000000    -0.871000000    -4.339000000
C    -3.111000000    -1.837000000    -4.249000000
H    -4.022000000    -1.376000000    -4.635000000
C    -3.371000000    -2.280000000    -2.879000000
C    -4.383000000    -1.617000000    -2.152000000
H    -4.979000000    -0.827000000    -2.602000000
H    -2.907000000    -2.738000000    -4.832000000
C    -2.151000000     0.537000000    -4.481000000
H    -3.180000000     0.850000000    -4.638000000
C    -1.081000000     1.429000000    -4.483000000
C    -1.391000000     2.902000000    -4.478000000
H    -2.355000000     3.140000000    -4.933000000
H    -0.546000000     3.328000000    -5.023000000
C    -1.376000000     3.458000000    -3.051000000
C    -2.582000000     3.502000000    -2.409000000
H    -3.472000000     3.045000000    -2.835000000
C    -0.210000000     3.987000000    -2.488000000
C    -0.319000000     4.527000000    -1.230000000
H     0.532000000     4.814000000    -0.618000000
C    -1.507000000     4.446000000    -0.501000000
O    -1.454000000     4.946000000     0.788000000
C    -1.506000000     3.865000000     1.853000000
C    -0.639000000     4.159000000     3.017000000
C    -0.966000000     3.781000000     4.307000000
H    -1.889000000     3.286000000     4.598000000
C     0.599000000     4.695000000     2.788000000
H     0.856000000     4.980000000     1.771000000
O    -2.856000000     3.629000000     2.272000000
H    -1.125000000     2.971000000     1.340000000
C    -2.664000000     3.951000000    -1.096000000
C    -3.985000000     3.873000000    -0.352000000
H    -4.790000000     3.890000000    -1.089000000
H    -4.132000000     4.715000000     0.328000000
C    -4.064000000     2.612000000     0.423000000
C    -4.664000000     1.449000000    -0.165000000
H    -5.044000000     1.430000000    -1.183000000
C    -3.575000000     2.577000000     1.711000000
C    -3.647000000     1.361000000     2.443000000
H    -3.189000000     1.206000000     3.417000000
C    -4.194000000     0.286000000     1.833000000
O    -3.935000000    -0.948000000     2.549000000
C    -3.030000000    -1.857000000     1.909000000
C    -2.098000000    -2.452000000     2.984000000
C    -1.477000000    -1.573000000     3.821000000
H    -1.911000000    -0.582000000     3.922000000
C    -1.617000000    -3.722000000     2.916000000
H    -2.065000000    -4.412000000     2.206000000
O    -3.707000000    -2.863000000     1.136000000
H    -2.390000000    -1.169000000     1.337000000
C    -4.672000000     0.268000000     0.580000000
C    -5.366000000    -0.928000000     0.017000000
H    -6.092000000    -0.440000000    -0.636000000
H    -5.844000000    -1.476000000     0.831000000
C    -4.448000000    -1.797000000    -0.788000000
C    -3.580000000    -2.758000000    -0.220000000
C    -2.779000000    -3.623000000    -0.916000000
H    -2.172000000    -4.424000000    -0.501000000
C    -2.654000000    -3.328000000    -2.274000000
O    -1.576000000    -3.929000000    -2.928000000
C    -0.349000000    -3.213000000    -2.906000000
H    -0.211000000    -2.456000000    -2.120000000
C     0.860000000    -4.222000000    -2.707000000
C     2.125000000    -3.861000000    -3.159000000
H     2.289000000    -2.968000000    -3.757000000
C     0.684000000    -5.330000000    -1.879000000
H    -0.268000000    -5.548000000    -1.404000000
C     1.753000000    -6.163000000    -1.527000000
O     1.578000000    -7.188000000    -0.663000000
C     3.018000000    -5.796000000    -1.991000000
H     3.946000000    -6.245000000    -1.646000000
C     3.247000000    -4.638000000    -2.825000000
O     4.525000000    -4.245000000    -3.162000000
C     4.750000000    -3.101000000    -3.831000000
C     5.356000000    -2.096000000    -3.158000000
H     5.530000000    -2.161000000    -2.087000000
C     4.422000000    -2.967000000    -5.161000000
H     4.070000000    -3.833000000    -5.715000000
C     4.612000000    -1.732000000    -5.779000000
H     4.563000000    -1.536000000    -6.847000000
C     5.251000000    -0.696000000    -5.072000000
H     5.372000000     0.271000000    -5.553000000
C     5.597000000    -0.875000000    -3.733000000
O     6.004000000     0.130000000    -2.889000000
C     5.115000000     1.155000000    -2.472000000
C     5.580000000     2.018000000    -1.548000000
H     6.536000000     1.828000000    -1.067000000
C     4.773000000     3.014000000    -1.047000000
O     5.247000000     3.839000000    -0.067000000
C     4.518000000     4.892000000     0.521000000
C     3.867000000     4.671000000     1.741000000
H     3.750000000     3.645000000     2.082000000
C     4.591000000     6.160000000    -0.058000000
H     4.958000000     6.208000000    -1.080000000
C     3.963000000     7.233000000     0.615000000
H     3.839000000     8.230000000     0.200000000
C     3.396000000     7.004000000     1.889000000
H     2.916000000     7.844000000     2.384000000
C     3.359000000     5.749000000     2.435000000
O     2.727000000     5.582000000     3.640000000
C     1.517000000     4.931000000     3.771000000
C     1.233000000     4.500000000     5.052000000
H     2.061000000     4.542000000     5.754000000
C    -0.012000000     3.998000000     5.350000000
O    -0.277000000     3.471000000     6.623000000
C    -0.780000000     2.206000000     6.756000000
C    -0.005000000     1.164000000     6.152000000
H     0.918000000     1.368000000     5.616000000
C    -1.938000000     1.889000000     7.470000000
H    -2.580000000     2.687000000     7.833000000
C    -2.367000000     0.562000000     7.616000000
H    -3.280000000     0.406000000     8.184000000
C    -1.692000000    -0.406000000     6.896000000
H    -2.115000000    -1.406000000     6.951000000
C    -0.480000000    -0.176000000     6.234000000
O     0.164000000    -1.159000000     5.506000000
C    -0.437000000    -2.003000000     4.643000000
C     0.052000000    -3.310000000     4.554000000
H     0.850000000    -3.623000000     5.222000000
C    -0.557000000    -4.186000000     3.678000000
O     0.032000000    -5.405000000     3.615000000
C    -0.111000000    -6.355000000     2.652000000
C    -0.908000000    -7.537000000     2.724000000
H    -1.545000000    -7.723000000     3.584000000
C    -0.886000000    -8.500000000     1.737000000
H    -1.417000000    -9.449000000     1.754000000
C    -0.155000000    -8.276000000     0.578000000
H    -0.215000000    -8.952000000    -0.271000000
C     0.746000000    -7.193000000     0.479000000
C     0.682000000    -6.217000000     1.448000000
H     1.339000000    -5.360000000     1.327000000
O     4.160000000     0.751000000     8.884000000
H     3.646000000     1.529000000     8.672000000
H     4.297000000     0.317000000     8.042000000
O     5.647000000    -2.924000000     5.473000000
H     5.143000000    -2.212000000     5.869000000
H     5.356000000    -3.709000000     5.937000000
O     4.698000000    -3.951000000     1.177000000
H     3.858000000    -3.524000000     1.346000000
H     5.300000000    -3.552000000     1.804000000
O     6.807000000     0.418000000     4.660000000
H     6.213000000     0.529000000     3.917000000
H     7.679000000     0.558000000     4.292000000
O     6.808000000    -0.772000000     0.193000000
H     6.102000000    -0.284000000     0.618000000
H     6.594000000    -1.691000000     0.353000000
O     6.501000000    -5.135000000    -0.246000000
H     6.955000000    -4.670000000    -0.948000000
H     5.807000000    -4.536000000     0.029000000
O     4.634000000     3.424000000     5.163000000
H     4.488000000     2.764000000     4.486000000
H     5.539000000     3.708000000     5.030000000
O     2.396000000    -2.765000000     1.891000000
H     1.987000000    -2.526000000     2.723000000
H     2.006000000    -2.168000000     1.252000000
O     9.094000000     3.188000000     0.181000000
H     8.530000000     3.084000000     0.948000000
H     9.938000000     3.462000000     0.541000000
O     9.330000000     0.616000000     3.616000000
H    10.100000000     1.029000000     4.008000000
H     9.549000000     0.532000000     2.688000000
O     8.725000000    -0.626000000     6.636000000
H     8.325000000    -0.486000000     5.778000000
H     8.400000000     0.097000000     7.173000000
O     7.203000000     1.592000000     7.465000000
H     7.285000000     2.489000000     7.140000000
H     6.629000000     1.160000000     6.832000000
O     3.069000000     3.036000000     7.679000000
H     3.753000000     3.087000000     7.010000000
H     2.602000000     3.868000000     7.607000000
O     6.041000000     6.629000000     4.969000000
H     5.890000000     5.711000000     4.745000000
H     6.989000000     6.694000000     5.085000000
O     7.187000000     3.958000000     4.302000000
H     7.356000000     3.341000000     3.590000000
H     7.969000000     4.510000000     4.331000000
O     7.313000000     2.535000000     2.115000000
H     6.786000000     1.736000000     2.117000000
H     6.783000000     3.170000000     1.634000000
O     9.662000000    -0.339000000    -0.242000000
H     8.783000000    -0.566000000     0.063000000
H     9.556000000     0.515000000    -0.660000000
O     4.270000000    -0.008000000     5.980000000
H     5.063000000     0.247000000     5.508000000
H     3.555000000     0.367000000     5.465000000
O     6.526000000    -2.907000000     2.743000000
H     6.148000000    -2.817000000     3.618000000
H     7.122000000    -2.163000000     2.662000000
