201
-1252.98528
C     3.431000000     3.811000000    -1.266000000
H     2.794000000     4.647000000    -0.990000000
C     3.004000000     2.869000000    -2.197000000
C     3.836000000     1.828000000    -2.529000000
H     3.460000000     1.085000000    -3.228000000
C     1.607000000     2.876000000    -2.729000000
O     1.122000000     4.182000000    -2.595000000
H     0.996000000     2.213000000    -2.101000000
O     1.458000000     2.466000000    -4.137000000
C     0.319000000     1.697000000    -4.411000000
C     0.564000000     0.382000000    -4.446000000
H     1.587000000     0.016000000    -4.416000000
C    -0.474000000    -0.519000000    -4.619000000
O    -0.075000000    -1.845000000    -4.566000000
C    -1.809000000    -0.112000000    -4.627000000
C    -2.971000000    -1.154000000    -4.662000000
H    -3.896000000    -0.827000000    -5.140000000
C    -3.233000000    -1.702000000    -3.281000000
C    -4.193000000    -1.077000000    -2.516000000
H    -4.604000000    -0.102000000    -2.767000000
H    -2.657000000    -1.929000000    -5.364000000
C    -2.055000000     1.264000000    -4.457000000
H    -3.114000000     1.486000000    -4.345000000
C    -1.034000000     2.162000000    -4.394000000
C    -1.313000000     3.638000000    -4.094000000
H    -2.269000000     3.998000000    -4.482000000
H    -0.542000000     4.099000000    -4.714000000
C    -1.293000000     4.027000000    -2.617000000
C    -2.546000000     3.985000000    -1.925000000
H    -3.456000000     3.777000000    -2.482000000
C    -0.097000000     4.272000000    -1.948000000
C    -0.176000000     4.560000000    -0.584000000
H     0.754000000     4.702000000    -0.039000000
C    -1.334000000     4.440000000     0.113000000
O    -1.217000000     4.397000000     1.479000000
C    -1.420000000     3.191000000     2.287000000
C    -0.519000000     3.362000000     3.478000000
C    -0.821000000     2.690000000     4.693000000
H    -1.808000000     2.270000000     4.870000000
C     0.687000000     4.017000000     3.313000000
H     0.788000000     4.633000000     2.423000000
O    -2.775000000     3.107000000     2.646000000
H    -1.080000000     2.353000000     1.660000000
C    -2.553000000     4.165000000    -0.536000000
C    -3.866000000     3.874000000     0.159000000
H    -4.720000000     4.073000000    -0.492000000
H    -3.980000000     4.592000000     0.974000000
C    -4.031000000     2.462000000     0.738000000
C    -4.665000000     1.440000000    -0.011000000
H    -5.021000000     1.667000000    -1.013000000
C    -3.550000000     2.194000000     2.013000000
C    -3.770000000     0.905000000     2.569000000
H    -3.330000000     0.621000000     3.521000000
C    -4.311000000    -0.137000000     1.803000000
O    -4.271000000    -1.382000000     2.252000000
C    -3.377000000    -2.283000000     1.518000000
C    -2.451000000    -3.073000000     2.398000000
C    -1.815000000    -2.338000000     3.461000000
H    -2.075000000    -1.291000000     3.593000000
C    -2.001000000    -4.376000000     2.143000000
H    -2.383000000    -4.957000000     1.307000000
O    -4.015000000    -3.111000000     0.557000000
H    -2.752000000    -1.670000000     0.852000000
C    -4.876000000     0.161000000     0.527000000
C    -5.551000000    -0.906000000    -0.339000000
H    -6.331000000    -0.469000000    -0.966000000
H    -6.080000000    -1.600000000     0.317000000
C    -4.535000000    -1.586000000    -1.234000000
C    -3.888000000    -2.744000000    -0.776000000
C    -2.924000000    -3.401000000    -1.604000000
H    -2.482000000    -4.321000000    -1.232000000
C    -2.624000000    -2.862000000    -2.810000000
O    -1.573000000    -3.406000000    -3.462000000
C    -0.378000000    -2.640000000    -3.363000000
H    -0.544000000    -2.008000000    -2.479000000
C     0.756000000    -3.601000000    -2.999000000
C     2.102000000    -3.151000000    -3.272000000
H     2.348000000    -2.316000000    -3.923000000
C     0.544000000    -4.830000000    -2.363000000
H    -0.467000000    -5.124000000    -2.093000000
C     1.630000000    -5.624000000    -2.114000000
O     1.419000000    -6.863000000    -1.554000000
C     2.906000000    -5.197000000    -2.303000000
H     3.680000000    -5.883000000    -1.968000000
C     3.129000000    -3.973000000    -2.903000000
O     4.451000000    -3.670000000    -3.261000000
C     4.872000000    -2.464000000    -3.764000000
C     5.255000000    -1.458000000    -2.904000000
H     5.281000000    -1.758000000    -1.859000000
C     5.009000000    -2.301000000    -5.129000000
H     4.720000000    -3.055000000    -5.858000000
C     5.405000000    -1.065000000    -5.607000000
H     5.415000000    -0.926000000    -6.685000000
C     5.743000000    -0.046000000    -4.710000000
H     6.072000000     0.930000000    -5.057000000
C     5.667000000    -0.201000000    -3.341000000
O     6.048000000     0.815000000    -2.506000000
C     5.207000000     1.902000000    -2.212000000
C     5.605000000     2.852000000    -1.335000000
H     6.671000000     2.712000000    -1.179000000
C     4.755000000     3.805000000    -0.862000000
O     5.210000000     4.589000000     0.081000000
C     4.572000000     5.218000000     1.079000000
C     3.994000000     4.592000000     2.215000000
H     3.940000000     3.507000000     2.263000000
C     4.691000000     6.583000000     1.047000000
H     5.188000000     7.019000000     0.184000000
C     4.256000000     7.378000000     2.122000000
H     4.508000000     8.430000000     2.229000000
C     3.633000000     6.746000000     3.227000000
H     3.203000000     7.413000000     3.970000000
C     3.390000000     5.373000000     3.231000000
O     2.777000000     4.805000000     4.351000000
C     1.675000000     4.026000000     4.345000000
C     1.358000000     3.421000000     5.573000000
H     1.993000000     3.502000000     6.452000000
C     0.095000000     2.842000000     5.763000000
O    -0.200000000     2.234000000     6.981000000
C    -0.609000000     0.905000000     7.077000000
C    -0.043000000    -0.060000000     6.216000000
H     0.713000000     0.188000000     5.475000000
C    -1.680000000     0.505000000     7.903000000
H    -2.081000000     1.197000000     8.640000000
C    -2.162000000    -0.793000000     7.827000000
H    -2.947000000    -1.138000000     8.496000000
C    -1.635000000    -1.646000000     6.877000000
H    -2.153000000    -2.594000000     6.752000000
C    -0.578000000    -1.297000000     6.084000000
O    -0.110000000    -2.206000000     5.133000000
C    -0.820000000    -2.944000000     4.201000000
C    -0.432000000    -4.298000000     3.970000000
H     0.392000000    -4.674000000     4.571000000
C    -1.043000000    -4.989000000     2.967000000
O    -0.649000000    -6.263000000     2.695000000
C    -0.594000000    -6.892000000     1.487000000
C    -1.322000000    -8.035000000     1.278000000
H    -1.981000000    -8.354000000     2.082000000
C    -1.263000000    -8.679000000     0.024000000
H    -1.823000000    -9.610000000     0.005000000
C    -0.361000000    -8.230000000    -0.859000000
H    -0.150000000    -8.744000000    -1.794000000
C     0.468000000    -7.195000000    -0.588000000
C     0.339000000    -6.495000000     0.593000000
H     1.057000000    -5.705000000     0.797000000
O     3.618000000    -0.017000000     8.396000000
H     3.813000000     0.882000000     8.132000000
H     3.558000000    -0.501000000     7.572000000
O     5.156000000    -3.034000000     5.748000000
H     4.635000000    -2.362000000     6.188000000
H     4.697000000    -3.853000000     5.934000000
O     3.302000000    -4.681000000     1.373000000
H     2.523000000    -4.142000000     1.241000000
H     3.721000000    -4.311000000     2.150000000
O     7.879000000    -0.991000000     2.931000000
H     7.462000000    -0.749000000     3.757000000
H     8.240000000    -0.171000000     2.595000000
O     8.049000000    -2.163000000     6.132000000
H     7.974000000    -1.250000000     5.854000000
H     7.236000000    -2.572000000     5.835000000
O     5.962000000    -1.153000000     0.371000000
H     5.037000000    -1.120000000     0.616000000
H     6.431000000    -1.148000000     1.204000000
O     5.616000000    -4.212000000    -0.237000000
H     5.658000000    -3.556000000     0.459000000
H     4.724000000    -4.554000000    -0.189000000
O     4.987000000     1.676000000     4.786000000
H     4.287000000     1.128000000     4.431000000
H     5.422000000     2.039000000     4.014000000
O     4.506000000    -7.018000000     2.301000000
H     4.843000000    -6.893000000     3.188000000
H     4.304000000    -6.134000000     1.995000000
O     1.202000000    -3.157000000     0.766000000
H     1.308000000    -2.415000000     0.169000000
H     0.505000000    -2.886000000     1.363000000
O     9.022000000     1.518000000     2.328000000
H     9.447000000     2.185000000     1.789000000
H     9.746000000     1.043000000     2.736000000
O     7.491000000     0.390000000     5.580000000
H     6.810000000     0.992000000     5.279000000
H     7.824000000     0.788000000     6.385000000
O     4.618000000     2.185000000     7.287000000
H     4.531000000     3.136000000     7.351000000
H     4.935000000     2.033000000     6.397000000
O     6.841000000     4.305000000     3.567000000
H     7.073000000     3.414000000     3.307000000
H     6.882000000     4.810000000     2.755000000
O     7.178000000    -4.906000000     2.026000000
H     6.741000000    -4.297000000     2.622000000
H     7.034000000    -4.534000000     1.156000000
O     6.346000000     1.925000000     2.236000000
H     5.706000000     1.242000000     2.035000000
H     7.074000000     1.754000000     1.638000000
O     8.511000000    -1.529000000    -0.976000000
H     7.572000000    -1.346000000    -0.950000000
H     8.925000000    -0.666000000    -0.965000000
O     2.911000000    -1.255000000     6.026000000
H     1.990000000    -1.484000000     5.909000000
H     3.070000000    -0.564000000     5.382000000
O     5.149000000    -3.009000000     2.974000000
H     5.214000000    -3.012000000     3.929000000
H     4.665000000    -2.209000000     2.768000000
