201
-1265.45410
C     3.703000000     2.873000000    -2.055000000
H     3.086000000     3.563000000    -1.484000000
C     3.132000000     2.018000000    -3.027000000
C     3.955000000     1.049000000    -3.608000000
H     3.556000000     0.375000000    -4.362000000
C     1.661000000     2.152000000    -3.326000000
O     1.148000000     3.500000000    -3.164000000
H     1.065000000     1.624000000    -2.567000000
O     1.317000000     1.687000000    -4.613000000
C     0.201000000     0.801000000    -4.650000000
C     0.383000000    -0.530000000    -4.670000000
H     1.363000000    -0.967000000    -4.841000000
C    -0.752000000    -1.423000000    -4.606000000
O    -0.446000000    -2.706000000    -4.274000000
C    -2.023000000    -0.878000000    -4.475000000
C    -3.261000000    -1.759000000    -4.187000000
H    -4.109000000    -1.189000000    -4.573000000
C    -3.515000000    -2.025000000    -2.745000000
C    -4.323000000    -1.203000000    -2.021000000
H    -4.857000000    -0.391000000    -2.509000000
H    -3.071000000    -2.641000000    -4.802000000
C    -2.230000000     0.495000000    -4.587000000
H    -3.224000000     0.935000000    -4.604000000
C    -1.154000000     1.335000000    -4.634000000
C    -1.369000000     2.855000000    -4.567000000
H    -2.361000000     3.104000000    -4.950000000
H    -0.558000000     3.376000000    -5.079000000
C    -1.310000000     3.333000000    -3.127000000
C    -2.529000000     3.482000000    -2.388000000
H    -3.497000000     3.248000000    -2.825000000
C    -0.060000000     3.754000000    -2.526000000
C    -0.020000000     4.276000000    -1.268000000
H     0.883000000     4.544000000    -0.725000000
C    -1.142000000     4.436000000    -0.512000000
O    -1.045000000     4.830000000     0.831000000
C    -1.108000000     3.739000000     1.717000000
C    -0.107000000     3.741000000     2.839000000
C    -0.354000000     3.047000000     4.034000000
H    -1.343000000     2.611000000     4.149000000
C     1.126000000     4.331000000     2.550000000
H     1.362000000     4.807000000     1.602000000
O    -2.488000000     3.694000000     2.298000000
H    -0.870000000     2.825000000     1.152000000
C    -2.443000000     4.043000000    -1.061000000
C    -3.720000000     4.026000000    -0.265000000
H    -4.606000000     4.148000000    -0.890000000
H    -3.707000000     4.900000000     0.389000000
C    -3.927000000     2.815000000     0.585000000
C    -4.675000000     1.799000000    -0.012000000
H    -5.159000000     1.911000000    -0.979000000
C    -3.387000000     2.693000000     1.872000000
C    -3.653000000     1.544000000     2.622000000
H    -3.266000000     1.414000000     3.629000000
C    -4.381000000     0.489000000     1.987000000
O    -4.454000000    -0.729000000     2.646000000
C    -3.443000000    -1.694000000     2.301000000
C    -2.847000000    -2.371000000     3.529000000
C    -2.772000000    -1.768000000     4.801000000
H    -3.412000000    -0.950000000     5.124000000
C    -1.992000000    -3.453000000     3.326000000
H    -1.861000000    -3.844000000     2.321000000
O    -3.997000000    -2.662000000     1.405000000
H    -2.646000000    -1.125000000     1.800000000
C    -4.852000000     0.626000000     0.717000000
C    -5.590000000    -0.504000000     0.024000000
H    -6.299000000    -0.116000000    -0.710000000
H    -6.216000000    -1.071000000     0.717000000
C    -4.559000000    -1.437000000    -0.641000000
C    -3.830000000    -2.442000000    -0.018000000
C    -2.925000000    -3.240000000    -0.691000000
H    -2.355000000    -3.959000000    -0.109000000
C    -2.799000000    -3.036000000    -2.066000000
O    -1.730000000    -3.778000000    -2.559000000
C    -0.525000000    -3.088000000    -2.846000000
H    -0.389000000    -2.156000000    -2.277000000
C     0.721000000    -4.050000000    -2.492000000
C     1.963000000    -3.912000000    -3.170000000
H     2.003000000    -3.310000000    -4.073000000
C     0.734000000    -4.882000000    -1.410000000
H    -0.172000000    -4.920000000    -0.811000000
C     1.825000000    -5.629000000    -1.039000000
O     1.912000000    -6.395000000     0.163000000
C     3.022000000    -5.499000000    -1.766000000
H     3.920000000    -6.003000000    -1.419000000
C     3.104000000    -4.617000000    -2.849000000
O     4.400000000    -4.477000000    -3.380000000
C     4.933000000    -3.395000000    -4.133000000
C     5.484000000    -2.176000000    -3.582000000
H     5.618000000    -2.022000000    -2.514000000
C     4.967000000    -3.598000000    -5.507000000
H     4.654000000    -4.556000000    -5.916000000
C     5.462000000    -2.643000000    -6.340000000
H     5.541000000    -2.819000000    -7.410000000
C     5.760000000    -1.349000000    -5.827000000
H     6.092000000    -0.543000000    -6.476000000
C     5.830000000    -1.129000000    -4.448000000
O     6.219000000     0.177000000    -3.990000000
C     5.313000000     0.965000000    -3.259000000
C     5.786000000     1.737000000    -2.276000000
H     6.839000000     1.763000000    -2.007000000
C     5.017000000     2.640000000    -1.666000000
O     5.563000000     3.429000000    -0.709000000
C     5.046000000     4.440000000     0.036000000
C     4.385000000     4.099000000     1.231000000
H     4.476000000     3.088000000     1.621000000
C     5.161000000     5.712000000    -0.362000000
H     5.390000000     5.846000000    -1.416000000
C     4.520000000     6.723000000     0.366000000
H     4.610000000     7.765000000     0.068000000
C     3.866000000     6.422000000     1.590000000
H     3.712000000     7.259000000     2.267000000
C     3.843000000     5.094000000     2.044000000
O     3.376000000     4.774000000     3.352000000
C     2.116000000     4.314000000     3.553000000
C     1.854000000     3.667000000     4.783000000
H     2.616000000     3.544000000     5.548000000
C     0.610000000     2.997000000     4.997000000
O     0.548000000     2.209000000     6.114000000
C    -0.613000000     1.752000000     6.680000000
C    -0.728000000     0.373000000     6.689000000
H     0.059000000    -0.182000000     6.184000000
C    -1.576000000     2.532000000     7.351000000
H    -1.482000000     3.615000000     7.357000000
C    -2.712000000     1.899000000     7.805000000
H    -3.487000000     2.412000000     8.369000000
C    -2.818000000     0.511000000     7.733000000
H    -3.717000000     0.068000000     8.154000000
C    -1.864000000    -0.263000000     7.135000000
O    -2.054000000    -1.613000000     7.022000000
C    -2.012000000    -2.288000000     5.830000000
C    -1.240000000    -3.407000000     5.610000000
H    -0.552000000    -3.797000000     6.356000000
C    -1.230000000    -4.009000000     4.355000000
O    -0.286000000    -4.993000000     4.092000000
C    -0.335000000    -5.720000000     2.937000000
C    -1.418000000    -6.563000000     2.728000000
H    -2.231000000    -6.626000000     3.446000000
C    -1.306000000    -7.461000000     1.629000000
H    -2.072000000    -8.209000000     1.439000000
C    -0.141000000    -7.518000000     0.864000000
H    -0.008000000    -8.230000000     0.053000000
C     0.776000000    -6.472000000     0.979000000
C     0.670000000    -5.541000000     2.064000000
H     1.408000000    -4.760000000     2.228000000
O     5.382000000    -1.076000000     7.765000000
H     5.539000000    -0.654000000     8.610000000
H     6.183000000    -0.918000000     7.266000000
O     4.260000000    -2.727000000     1.914000000
H     4.520000000    -1.849000000     1.634000000
H     3.667000000    -2.577000000     2.650000000
O     4.982000000    -5.272000000     2.100000000
H     4.831000000    -4.342000000     1.930000000
H     4.312000000    -5.511000000     2.740000000
O     5.867000000    -0.928000000     4.499000000
H     5.137000000    -0.920000000     5.118000000
H     5.540000000    -0.452000000     3.736000000
O     7.716000000    -2.963000000     4.038000000
H     7.036000000    -2.291000000     4.090000000
H     7.365000000    -3.699000000     4.538000000
O     6.999000000    -0.815000000     0.005000000
H     6.248000000    -0.538000000     0.529000000
H     7.393000000    -1.527000000     0.509000000
O     4.782000000     1.370000000     6.073000000
H     4.649000000     1.334000000     5.126000000
H     5.263000000     2.185000000     6.216000000
O     0.850000000    -2.417000000     1.652000000
H     1.779000000    -2.199000000     1.737000000
H     0.423000000    -1.578000000     1.477000000
O     9.036000000     3.014000000     0.034000000
H     8.589000000     2.560000000     0.748000000
H     9.836000000     3.356000000     0.431000000
O     9.965000000     0.086000000     2.521000000
H    10.431000000    -0.568000000     3.041000000
H    10.581000000     0.325000000     1.829000000
O     7.967000000    -0.978000000     6.662000000
H     7.469000000    -1.093000000     5.852000000
H     8.740000000    -0.479000000     6.399000000
O     2.872000000    -0.131000000     7.159000000
H     3.358000000     0.604000000     6.785000000
H     3.548000000    -0.754000000     7.426000000
O     7.325000000     3.765000000     3.630000000
H     6.923000000     3.153000000     3.014000000
H     7.668000000     4.469000000     3.079000000
O     8.555000000     0.976000000     4.927000000
H     9.161000000     0.629000000     4.272000000
H     7.801000000     1.277000000     4.419000000
O     5.645000000     3.858000000     5.961000000
H     6.056000000     3.924000000     5.099000000
H     5.022000000     4.584000000     5.985000000
O     7.124000000     1.093000000     2.359000000
H     7.736000000     0.459000000     1.986000000
H     6.259000000     0.729000000     2.172000000
O     3.236000000    -2.030000000     4.240000000
H     2.480000000    -2.117000000     4.821000000
H     3.331000000    -1.087000000     4.109000000
O     8.193000000    -2.973000000     1.356000000
H     8.272000000    -2.887000000     2.306000000
H     8.157000000    -3.917000000     1.203000000
O     9.312000000    -0.412000000    -1.404000000
H     9.186000000     0.353000000    -1.965000000
H     8.497000000    -0.482000000    -0.906000000
