201
-1242.65278
C     4.227000000     1.120000000    -2.849000000
H     4.300000000     2.030000000    -2.259000000
C     3.020000000     0.923000000    -3.585000000
C     2.887000000    -0.266000000    -4.321000000
H     1.905000000    -0.474000000    -4.739000000
C     1.852000000     1.828000000    -3.317000000
O     2.322000000     3.252000000    -3.093000000
H     1.345000000     1.417000000    -2.431000000
O     0.948000000     1.691000000    -4.359000000
C    -0.434000000     1.692000000    -4.000000000
C    -1.102000000     0.440000000    -4.071000000
H    -0.641000000    -0.427000000    -4.537000000
C    -2.456000000     0.401000000    -3.863000000
O    -3.130000000    -0.784000000    -3.941000000
C    -3.135000000     1.540000000    -3.385000000
C    -4.637000000     1.479000000    -2.969000000
H    -5.179000000     2.426000000    -3.019000000
C    -4.809000000     1.017000000    -1.547000000
C    -4.807000000     1.956000000    -0.448000000
H    -4.818000000     3.015000000    -0.691000000
H    -5.041000000     0.793000000    -3.716000000
C    -2.432000000     2.727000000    -3.162000000
H    -3.001000000     3.577000000    -2.795000000
C    -1.075000000     2.850000000    -3.585000000
C    -0.348000000     4.178000000    -3.529000000
H    -1.116000000     4.952000000    -3.466000000
H     0.287000000     4.386000000    -4.392000000
C     0.410000000     4.331000000    -2.206000000
C    -0.229000000     4.828000000    -1.040000000
H    -1.282000000     5.097000000    -1.072000000
C     1.726000000     3.858000000    -2.063000000
C     2.348000000     3.889000000    -0.824000000
H     3.382000000     3.556000000    -0.802000000
C     1.627000000     4.342000000     0.314000000
O     2.176000000     4.184000000     1.585000000
C     1.681000000     3.130000000     2.449000000
C     2.845000000     2.309000000     3.075000000
C     2.780000000     1.684000000     4.291000000
H     1.872000000     1.830000000     4.870000000
C     4.099000000     2.252000000     2.339000000
H     4.274000000     2.793000000     1.412000000
O     0.806000000     3.744000000     3.461000000
H     1.167000000     2.345000000     1.874000000
C     0.318000000     4.837000000     0.237000000
C    -0.456000000     5.446000000     1.386000000
H    -1.116000000     6.243000000     1.039000000
H     0.179000000     5.977000000     2.099000000
C    -1.186000000     4.401000000     2.241000000
C    -2.515000000     4.040000000     1.853000000
H    -3.060000000     4.607000000     1.102000000
C    -0.559000000     3.643000000     3.236000000
C    -1.168000000     2.524000000     3.687000000
H    -0.527000000     1.963000000     4.362000000
C    -2.458000000     2.099000000     3.310000000
O    -2.903000000     0.880000000     3.751000000
C    -2.871000000    -0.273000000     2.855000000
C    -2.297000000    -1.501000000     3.530000000
C    -1.614000000    -1.504000000     4.748000000
H    -1.408000000    -0.591000000     5.301000000
C    -2.383000000    -2.734000000     2.863000000
H    -2.815000000    -2.763000000     1.866000000
O    -4.206000000    -0.450000000     2.308000000
H    -2.211000000    -0.088000000     1.995000000
C    -3.154000000     2.913000000     2.420000000
C    -4.588000000     2.504000000     1.981000000
H    -5.000000000     3.458000000     1.647000000
H    -5.197000000     2.175000000     2.826000000
C    -4.564000000     1.463000000     0.817000000
C    -4.445000000     0.060000000     1.054000000
C    -4.663000000    -0.791000000     0.050000000
H    -4.582000000    -1.860000000     0.231000000
C    -4.790000000    -0.351000000    -1.218000000
O    -4.582000000    -1.298000000    -2.178000000
C    -3.233000000    -1.546000000    -2.736000000
H    -2.565000000    -1.085000000    -1.994000000
C    -2.911000000    -3.044000000    -3.035000000
C    -1.830000000    -3.327000000    -3.875000000
H    -1.244000000    -2.531000000    -4.328000000
C    -3.447000000    -4.024000000    -2.194000000
H    -4.264000000    -3.832000000    -1.503000000
C    -2.982000000    -5.304000000    -2.330000000
O    -3.512000000    -6.354000000    -1.549000000
C    -1.821000000    -5.571000000    -3.050000000
H    -1.448000000    -6.582000000    -3.190000000
C    -1.191000000    -4.560000000    -3.841000000
O    -0.141000000    -4.906000000    -4.624000000
C     0.512000000    -4.123000000    -5.485000000
C     1.746000000    -3.647000000    -5.088000000
H     2.125000000    -3.832000000    -4.086000000
C     0.047000000    -3.710000000    -6.680000000
H    -0.934000000    -3.960000000    -7.074000000
C     0.712000000    -2.737000000    -7.472000000
H     0.292000000    -2.556000000    -8.458000000
C     1.943000000    -2.310000000    -7.059000000
H     2.394000000    -1.570000000    -7.714000000
C     2.465000000    -2.768000000    -5.841000000
O     3.675000000    -2.256000000    -5.323000000
C     3.856000000    -1.191000000    -4.475000000
C     5.039000000    -0.944000000    -3.849000000
H     5.771000000    -1.730000000    -4.019000000
C     5.309000000     0.206000000    -3.119000000
O     6.518000000     0.352000000    -2.427000000
C     6.832000000     1.097000000    -1.309000000
C     6.343000000     0.852000000    -0.016000000
H     5.703000000     0.012000000     0.237000000
C     7.562000000     2.278000000    -1.564000000
H     7.928000000     2.563000000    -2.547000000
C     7.901000000     3.152000000    -0.518000000
H     8.496000000     4.005000000    -0.834000000
C     7.543000000     2.871000000     0.817000000
H     7.880000000     3.599000000     1.550000000
C     6.702000000     1.755000000     1.035000000
O     6.445000000     1.491000000     2.331000000
C     5.161000000     1.500000000     2.898000000
C     4.940000000     0.784000000     4.077000000
H     5.763000000     0.172000000     4.438000000
C     3.777000000     0.843000000     4.731000000
O     3.588000000     0.100000000     5.892000000
C     2.375000000    -0.105000000     6.439000000
C     1.521000000    -1.125000000     6.033000000
H     1.810000000    -1.752000000     5.193000000
C     2.128000000     0.460000000     7.725000000
H     2.765000000     1.217000000     8.175000000
C     1.075000000     0.088000000     8.493000000
H     0.826000000     0.656000000     9.386000000
C     0.195000000    -0.865000000     8.032000000
H    -0.682000000    -1.193000000     8.584000000
C     0.407000000    -1.403000000     6.806000000
O    -0.264000000    -2.593000000     6.438000000
C    -1.076000000    -2.638000000     5.332000000
C    -1.258000000    -3.874000000     4.659000000
H    -0.803000000    -4.803000000     4.994000000
C    -1.941000000    -3.978000000     3.436000000
O    -1.923000000    -5.109000000     2.798000000
C    -2.937000000    -5.550000000     1.948000000
C    -4.255000000    -5.493000000     2.438000000
H    -4.439000000    -5.179000000     3.462000000
C    -5.317000000    -5.758000000     1.523000000
H    -6.336000000    -5.445000000     1.733000000
C    -5.072000000    -6.008000000     0.210000000
H    -5.897000000    -6.081000000    -0.494000000
C    -3.737000000    -6.185000000    -0.203000000
C    -2.702000000    -5.941000000     0.670000000
H    -1.669000000    -5.985000000     0.332000000
O     0.765000000    -6.679000000    -0.741000000
H     1.099000000    -5.829000000    -1.029000000
H     0.499000000    -7.118000000    -1.548000000
O     6.495000000    -6.279000000    -2.862000000
H     6.142000000    -6.563000000    -2.018000000
H     6.777000000    -7.088000000    -3.288000000
O     7.443000000    -4.069000000     3.188000000
H     6.887000000    -4.740000000     3.584000000
H     6.829000000    -3.452000000     2.792000000
O     1.634000000    -7.654000000    -5.516000000
H     2.132000000    -7.144000000    -6.155000000
H     1.829000000    -7.242000000    -4.675000000
O     2.629000000    -6.563000000    -3.368000000
H     2.679000000    -5.738000000    -2.885000000
H     2.908000000    -7.227000000    -2.737000000
O     5.419000000    -2.557000000     1.075000000
H     4.810000000    -3.007000000     0.491000000
H     6.210000000    -2.435000000     0.550000000
O     6.517000000    -3.474000000    -2.819000000
H     5.709000000    -3.171000000    -2.407000000
H     6.553000000    -4.409000000    -2.617000000
O     1.035000000    -2.817000000     1.818000000
H     1.155000000    -2.678000000     0.879000000
H     0.099000000    -2.993000000     1.917000000
O     3.183000000    -3.345000000     3.405000000
H     3.791000000    -2.948000000     2.781000000
H     2.320000000    -3.037000000     3.128000000
O     2.518000000    -7.802000000     1.006000000
H     2.722000000    -7.376000000     1.838000000
H     1.792000000    -7.292000000     0.647000000
O     4.118000000    -6.827000000    -6.403000000
H     4.525000000    -6.193000000    -5.813000000
H     4.213000000    -7.667000000    -5.954000000
O     8.012000000    -2.891000000     0.355000000
H     7.648000000    -3.756000000     0.168000000
H     8.598000000    -3.034000000     1.098000000
O     3.077000000    -6.352000000     3.431000000
H     2.410000000    -6.208000000     4.102000000
H     3.250000000    -5.480000000     3.075000000
O     3.450000000    -8.680000000    -1.788000000
H     3.526000000    -9.622000000    -1.936000000
H     3.156000000    -8.604000000    -0.880000000
O     8.823000000    -1.046000000    -2.582000000
H     8.113000000    -0.697000000    -3.121000000
H     8.384000000    -1.594000000    -1.932000000
O     5.101000000    -6.334000000    -0.234000000
H     4.648000000    -5.527000000    -0.480000000
H     4.418000000    -6.884000000     0.152000000
O     6.729000000    -2.511000000    -6.391000000
H     7.340000000    -2.140000000    -5.755000000
H     6.391000000    -3.300000000    -5.967000000
O     4.683000000    -8.732000000    -4.599000000
H     5.562000000    -8.990000000    -4.321000000
H     4.335000000    -8.234000000    -3.859000000
O     5.273000000    -4.515000000    -5.177000000
H     5.829000000    -4.202000000    -4.463000000
H     4.464000000    -4.012000000    -5.088000000
