201
-1237.36382
C     4.690000000     1.698000000    -2.287000000
H     4.660000000     2.725000000    -1.931000000
C     3.544000000     1.190000000    -3.047000000
C     3.626000000    -0.149000000    -3.496000000
H     2.791000000    -0.559000000    -4.057000000
C     2.222000000     2.000000000    -3.214000000
O     2.374000000     3.423000000    -2.905000000
H     1.504000000     1.552000000    -2.512000000
O     1.624000000     1.871000000    -4.535000000
C     0.258000000     1.665000000    -4.552000000
C    -0.150000000     0.363000000    -4.632000000
H     0.599000000    -0.386000000    -4.877000000
C    -1.490000000    -0.031000000    -4.327000000
O    -1.774000000    -1.379000000    -4.306000000
C    -2.445000000     0.985000000    -3.995000000
C    -3.892000000     0.618000000    -3.768000000
H    -4.537000000     1.482000000    -3.942000000
C    -4.132000000     0.194000000    -2.372000000
C    -4.452000000     1.136000000    -1.337000000
H    -4.482000000     2.151000000    -1.724000000
H    -4.083000000    -0.202000000    -4.463000000
C    -2.051000000     2.330000000    -4.040000000
H    -2.756000000     3.116000000    -3.783000000
C    -0.673000000     2.668000000    -4.156000000
C    -0.195000000     4.075000000    -3.868000000
H    -1.026000000     4.761000000    -4.041000000
H     0.650000000     4.315000000    -4.516000000
C     0.212000000     4.218000000    -2.436000000
C    -0.653000000     4.817000000    -1.552000000
H    -1.648000000     5.102000000    -1.885000000
C     1.506000000     3.960000000    -2.033000000
C     1.877000000     4.108000000    -0.711000000
H     2.895000000     3.937000000    -0.368000000
C     1.004000000     4.692000000     0.218000000
O     1.413000000     4.644000000     1.516000000
C     0.798000000     3.534000000     2.358000000
C     1.769000000     2.997000000     3.378000000
C     1.414000000     2.687000000     4.671000000
H     0.467000000     2.958000000     5.131000000
C     2.996000000     2.621000000     2.933000000
H     3.182000000     2.584000000     1.862000000
O    -0.336000000     4.121000000     3.026000000
H     0.415000000     2.746000000     1.692000000
C    -0.338000000     4.886000000    -0.178000000
C    -1.442000000     5.316000000     0.706000000
H    -2.067000000     5.941000000     0.065000000
H    -0.989000000     5.998000000     1.429000000
C    -2.106000000     4.214000000     1.485000000
C    -3.265000000     3.603000000     0.999000000
H    -3.902000000     4.088000000     0.264000000
C    -1.516000000     3.590000000     2.587000000
C    -1.968000000     2.423000000     3.165000000
H    -1.483000000     1.957000000     4.018000000
C    -3.051000000     1.820000000     2.609000000
O    -3.468000000     0.596000000     3.086000000
C    -3.235000000    -0.567000000     2.319000000
C    -2.614000000    -1.747000000     3.132000000
C    -1.822000000    -1.435000000     4.217000000
H    -1.653000000    -0.422000000     4.575000000
C    -2.754000000    -3.055000000     2.671000000
H    -3.388000000    -3.351000000     1.840000000
O    -4.430000000    -0.891000000     1.658000000
H    -2.535000000    -0.295000000     1.515000000
C    -3.705000000     2.434000000     1.524000000
C    -4.975000000     1.824000000     0.993000000
H    -5.627000000     2.598000000     0.584000000
H    -5.523000000     1.376000000     1.825000000
C    -4.707000000     0.765000000    -0.004000000
C    -4.571000000    -0.557000000     0.260000000
C    -4.242000000    -1.543000000    -0.685000000
H    -4.082000000    -2.590000000    -0.443000000
C    -4.132000000    -1.173000000    -2.087000000
O    -3.655000000    -2.141000000    -2.917000000
C    -2.207000000    -2.119000000    -3.122000000
H    -1.728000000    -1.633000000    -2.259000000
C    -1.584000000    -3.526000000    -3.212000000
C    -0.488000000    -3.799000000    -3.971000000
H    -0.010000000    -3.002000000    -4.536000000
C    -2.096000000    -4.503000000    -2.398000000
H    -2.883000000    -4.267000000    -1.688000000
C    -1.475000000    -5.780000000    -2.414000000
O    -1.928000000    -6.789000000    -1.590000000
C    -0.461000000    -6.116000000    -3.351000000
H    -0.084000000    -7.134000000    -3.399000000
C     0.121000000    -5.052000000    -4.067000000
O     1.253000000    -5.222000000    -4.860000000
C     2.179000000    -4.258000000    -5.182000000
C     3.060000000    -3.812000000    -4.262000000
H     3.142000000    -4.285000000    -3.287000000
C     2.102000000    -3.702000000    -6.432000000
H     1.307000000    -4.024000000    -7.099000000
C     2.994000000    -2.696000000    -6.740000000
H     2.945000000    -2.349000000    -7.769000000
C     3.927000000    -2.210000000    -5.855000000
H     4.647000000    -1.448000000    -6.142000000
C     3.976000000    -2.795000000    -4.629000000
O     4.830000000    -2.327000000    -3.715000000
C     4.774000000    -0.928000000    -3.376000000
C     5.767000000    -0.465000000    -2.511000000
H     6.646000000    -1.040000000    -2.230000000
C     5.761000000     0.842000000    -2.017000000
O     6.725000000     1.336000000    -1.211000000
C     6.530000000     2.105000000    -0.037000000
C     5.821000000     1.545000000     0.975000000
H     5.437000000     0.533000000     0.873000000
C     6.996000000     3.383000000     0.117000000
H     7.459000000     3.847000000    -0.750000000
C     6.807000000     4.162000000     1.244000000
H     7.003000000     5.231000000     1.276000000
C     6.224000000     3.477000000     2.330000000
H     6.010000000     3.961000000     3.279000000
C     5.704000000     2.180000000     2.210000000
O     5.078000000     1.534000000     3.229000000
C     3.899000000     1.902000000     3.736000000
C     3.538000000     1.567000000     5.070000000
H     4.142000000     0.911000000     5.691000000
C     2.309000000     1.958000000     5.521000000
O     1.877000000     1.721000000     6.819000000
C     0.734000000     0.958000000     7.063000000
C     0.603000000    -0.338000000     6.551000000
H     1.297000000    -0.702000000     5.798000000
C    -0.210000000     1.492000000     7.940000000
H    -0.104000000     2.490000000     8.359000000
C    -1.357000000     0.816000000     8.237000000
H    -2.136000000     1.243000000     8.864000000
C    -1.508000000    -0.523000000     7.773000000
H    -2.464000000    -1.005000000     7.960000000
C    -0.563000000    -1.070000000     6.888000000
O    -0.749000000    -2.320000000     6.244000000
C    -1.327000000    -2.439000000     5.020000000
C    -1.368000000    -3.756000000     4.596000000
H    -0.943000000    -4.624000000     5.093000000
C    -2.122000000    -4.022000000     3.418000000
O    -2.057000000    -5.341000000     2.952000000
C    -2.687000000    -5.826000000     1.852000000
C    -4.067000000    -5.940000000     1.805000000
H    -4.706000000    -5.703000000     2.652000000
C    -4.747000000    -6.249000000     0.633000000
H    -5.827000000    -6.360000000     0.680000000
C    -4.076000000    -6.720000000    -0.483000000
H    -4.529000000    -6.922000000    -1.451000000
C    -2.691000000    -6.659000000    -0.438000000
C    -2.008000000    -6.272000000     0.697000000
H    -0.927000000    -6.173000000     0.645000000
O     1.388000000    -7.869000000    -0.701000000
H     1.405000000    -6.953000000    -0.977000000
H     1.384000000    -8.366000000    -1.519000000
O     3.550000000    -3.953000000     3.074000000
H     3.430000000    -3.008000000     3.172000000
H     2.825000000    -4.230000000     2.514000000
O     3.676000000    -6.565000000    -1.585000000
H     3.456000000    -5.774000000    -1.092000000
H     3.155000000    -7.255000000    -1.175000000
O     2.065000000    -6.695000000     2.162000000
H     1.879000000    -5.990000000     1.542000000
H     2.981000000    -6.921000000     1.999000000
O     6.935000000    -4.294000000    -3.575000000
H     6.226000000    -3.707000000    -3.314000000
H     6.513000000    -5.146000000    -3.685000000
O     2.605000000    -0.916000000     3.411000000
H     2.672000000    -1.187000000     4.327000000
H     2.060000000    -0.129000000     3.433000000
O     0.382000000    -9.201000000     2.268000000
H     0.983000000    -9.866000000     2.603000000
H     0.892000000    -8.391000000     2.275000000
O     6.493000000    -5.681000000    -0.905000000
H     5.672000000    -6.109000000    -0.662000000
H     6.321000000    -4.747000000    -0.780000000
O     4.103000000    -6.051000000     5.338000000
H     4.759000000    -5.404000000     5.597000000
H     3.458000000    -5.552000000     4.838000000
O     8.584000000    -3.916000000     1.242000000
H     8.023000000    -3.520000000     0.575000000
H     8.021000000    -3.998000000     2.011000000
O     4.925000000    -1.507000000     2.226000000
H     4.053000000    -1.146000000     2.392000000
H     5.499000000    -1.030000000     2.825000000
O     5.183000000    -6.403000000    -3.671000000
H     4.621000000    -6.769000000    -4.354000000
H     4.625000000    -6.368000000    -2.894000000
O     6.342000000    -2.566000000     0.102000000
H     5.486000000    -2.946000000    -0.097000000
H     6.236000000    -2.177000000     0.970000000
O     1.444000000    -5.948000000     4.803000000
H     0.749000000    -6.555000000     5.060000000
H     1.562000000    -6.103000000     3.866000000
O     4.629000000    -6.199000000     1.383000000
H     4.120000000    -5.621000000     0.814000000
H     5.180000000    -5.606000000     1.895000000
O     7.224000000    -8.363000000    -1.169000000
H     6.987000000    -7.440000000    -1.073000000
H     7.625000000    -8.595000000    -0.331000000
O     4.955000000    -9.274000000     1.539000000
H     4.338000000    -8.872000000     2.150000000
H     4.582000000   -10.136000000     1.353000000
O     6.517000000    -3.774000000     2.925000000
H     6.667000000    -2.868000000     3.196000000
H     5.587000000    -3.807000000     2.703000000
O     4.601000000    -9.170000000    -2.401000000
H     5.360000000    -9.727000000    -2.222000000
H     4.770000000    -8.370000000    -1.904000000
