201
-1218.08630
C     4.567000000     0.105000000    -2.236000000
H     5.020000000     1.074000000    -2.040000000
C     3.289000000     0.117000000    -2.722000000
C     2.706000000    -1.095000000    -2.850000000
H     1.655000000    -1.142000000    -3.124000000
C     2.428000000     1.352000000    -2.836000000
O     3.168000000     2.599000000    -2.697000000
H     1.663000000     1.256000000    -2.052000000
O     1.864000000     1.459000000    -4.110000000
C     0.557000000     1.838000000    -4.116000000
C    -0.323000000     0.838000000    -4.472000000
H     0.072000000    -0.155000000    -4.673000000
C    -1.737000000     0.917000000    -4.304000000
O    -2.509000000    -0.210000000    -4.471000000
C    -2.277000000     2.130000000    -3.868000000
C    -3.724000000     2.325000000    -3.518000000
H    -4.163000000     3.313000000    -3.672000000
C    -3.975000000     1.807000000    -2.082000000
C    -3.898000000     2.710000000    -0.983000000
H    -3.638000000     3.752000000    -1.153000000
H    -4.232000000     1.775000000    -4.313000000
C    -1.415000000     3.240000000    -3.685000000
H    -1.845000000     4.151000000    -3.276000000
C     0.033000000     3.103000000    -3.849000000
C     0.946000000     4.255000000    -3.534000000
H     0.506000000     5.249000000    -3.635000000
H     1.736000000     4.235000000    -4.288000000
C     1.531000000     4.257000000    -2.110000000
C     0.857000000     4.901000000    -1.102000000
H    -0.135000000     5.292000000    -1.315000000
C     2.631000000     3.513000000    -1.824000000
C     3.208000000     3.586000000    -0.552000000
H     4.150000000     3.093000000    -0.327000000
C     2.612000000     4.371000000     0.450000000
O     2.883000000     4.023000000     1.765000000
C     2.163000000     2.945000000     2.361000000
C     3.071000000     1.875000000     3.025000000
C     2.556000000     0.820000000     3.867000000
H     1.497000000     0.790000000     4.112000000
C     4.433000000     1.902000000     2.754000000
H     4.944000000     2.550000000     2.047000000
O     1.183000000     3.461000000     3.298000000
H     1.523000000     2.506000000     1.581000000
C     1.383000000     4.965000000     0.157000000
C     0.453000000     5.421000000     1.224000000
H    -0.065000000     6.246000000     0.731000000
H     1.096000000     5.893000000     1.970000000
C    -0.497000000     4.392000000     1.874000000
C    -1.826000000     4.352000000     1.463000000
H    -2.204000000     4.892000000     0.599000000
C    -0.106000000     3.559000000     2.915000000
C    -1.038000000     2.711000000     3.504000000
H    -0.587000000     2.109000000     4.288000000
C    -2.330000000     2.590000000     2.990000000
O    -3.125000000     1.469000000     3.337000000
C    -3.237000000     0.399000000     2.391000000
C    -3.029000000    -0.885000000     3.173000000
C    -2.443000000    -0.927000000     4.437000000
H    -2.026000000    -0.044000000     4.915000000
C    -3.543000000    -2.033000000     2.595000000
H    -4.074000000    -2.002000000     1.647000000
O    -4.545000000     0.428000000     1.747000000
H    -2.442000000     0.421000000     1.631000000
C    -2.692000000     3.373000000     1.916000000
C    -4.110000000     3.297000000     1.388000000
H    -4.541000000     4.264000000     1.122000000
H    -4.819000000     2.941000000     2.139000000
C    -4.225000000     2.350000000     0.306000000
C    -4.591000000     0.999000000     0.513000000
C    -4.726000000     0.133000000    -0.561000000
H    -4.940000000    -0.901000000    -0.304000000
C    -4.224000000     0.446000000    -1.826000000
O    -4.230000000    -0.516000000    -2.806000000
C    -2.912000000    -0.961000000    -3.276000000
H    -2.085000000    -0.806000000    -2.568000000
C    -2.916000000    -2.514000000    -3.376000000
C    -2.155000000    -3.186000000    -4.361000000
H    -1.535000000    -2.597000000    -5.031000000
C    -3.756000000    -3.268000000    -2.594000000
H    -4.404000000    -2.784000000    -1.867000000
C    -3.868000000    -4.597000000    -2.761000000
O    -4.741000000    -5.275000000    -1.928000000
C    -3.025000000    -5.283000000    -3.594000000
H    -3.076000000    -6.366000000    -3.525000000
C    -2.054000000    -4.624000000    -4.325000000
O    -1.149000000    -5.322000000    -5.094000000
C     0.123000000    -4.770000000    -5.164000000
C     0.893000000    -4.564000000    -4.004000000
H     0.595000000    -4.941000000    -3.030000000
C     0.514000000    -4.129000000    -6.387000000
H    -0.126000000    -4.252000000    -7.257000000
C     1.645000000    -3.294000000    -6.399000000
H     2.036000000    -2.770000000    -7.268000000
C     2.462000000    -3.182000000    -5.267000000
H     3.325000000    -2.535000000    -5.401000000
C     2.099000000    -3.792000000    -4.112000000
O     2.826000000    -3.533000000    -2.976000000
C     3.447000000    -2.303000000    -2.788000000
C     4.689000000    -2.295000000    -2.222000000
H     5.095000000    -3.268000000    -1.958000000
C     5.271000000    -1.108000000    -1.901000000
O     6.571000000    -1.044000000    -1.414000000
C     7.141000000    -0.083000000    -0.474000000
C     6.656000000    -0.118000000     0.870000000
H     5.885000000    -0.843000000     1.119000000
C     8.231000000     0.762000000    -0.890000000
H     8.638000000     0.561000000    -1.877000000
C     8.724000000     1.700000000     0.051000000
H     9.542000000     2.348000000    -0.255000000
C     8.111000000     1.744000000     1.314000000
H     8.660000000     2.358000000     2.023000000
C     7.085000000     0.897000000     1.743000000
O     6.620000000     0.933000000     3.070000000
C     5.254000000     0.938000000     3.329000000
C     4.725000000     0.034000000     4.263000000
H     5.365000000    -0.766000000     4.625000000
C     3.354000000    -0.053000000     4.532000000
O     2.853000000    -1.072000000     5.418000000
C     1.757000000    -0.893000000     6.204000000
C     0.631000000    -1.654000000     5.891000000
H     0.752000000    -2.391000000     5.101000000
C     1.769000000    -0.060000000     7.288000000
H     2.683000000     0.490000000     7.495000000
C     0.595000000     0.093000000     8.090000000
H     0.596000000     0.726000000     8.973000000
C    -0.607000000    -0.501000000     7.628000000
H    -1.514000000    -0.368000000     8.213000000
C    -0.553000000    -1.383000000     6.544000000
O    -1.594000000    -2.224000000     6.229000000
C    -2.127000000    -2.127000000     4.986000000
C    -2.598000000    -3.331000000     4.413000000
H    -2.301000000    -4.258000000     4.896000000
C    -3.428000000    -3.262000000     3.267000000
O    -3.840000000    -4.403000000     2.687000000
C    -4.760000000    -4.473000000     1.611000000
C    -6.141000000    -4.301000000     1.836000000
H    -6.405000000    -4.178000000     2.883000000
C    -7.043000000    -4.489000000     0.830000000
H    -8.120000000    -4.508000000     0.977000000
C    -6.578000000    -4.739000000    -0.451000000
H    -7.367000000    -4.910000000    -1.178000000
C    -5.220000000    -4.811000000    -0.732000000
C    -4.307000000    -4.608000000     0.321000000
H    -3.246000000    -4.642000000     0.090000000
O     2.159000000    -7.362000000     1.651000000
H     2.034000000    -6.448000000     1.906000000
H     1.316000000    -7.626000000     1.284000000
O     5.871000000    -5.827000000     3.985000000
H     5.741000000    -6.214000000     3.120000000
H     5.182000000    -5.167000000     4.060000000
O    -0.248000000    -6.510000000     6.279000000
H     0.106000000    -5.778000000     6.784000000
H    -0.426000000    -6.140000000     5.414000000
O     0.034000000    -5.968000000    -0.345000000
H     0.441000000    -5.421000000     0.327000000
H    -0.577000000    -6.524000000     0.137000000
O    -1.706000000    -7.574000000     0.890000000
H    -1.556000000    -8.482000000     1.156000000
H    -2.643000000    -7.437000000     1.025000000
O     2.454000000    -5.016000000     4.506000000
H     1.627000000    -4.585000000     4.721000000
H     2.421000000    -5.140000000     3.558000000
O     5.834000000    -3.368000000     1.105000000
H     5.939000000    -4.167000000     0.588000000
H     4.893000000    -3.309000000     1.266000000
O    -0.009000000    -8.206000000    -1.919000000
H     0.790000000    -8.041000000    -2.421000000
H    -0.140000000    -7.408000000    -1.407000000
O     4.634000000    -3.141000000     3.722000000
H     4.181000000    -3.371000000     2.911000000
H     4.139000000    -3.589000000     4.409000000
O    -0.744000000    -5.660000000     3.610000000
H    -0.917000000    -6.585000000     3.434000000
H    -0.151000000    -5.390000000     2.909000000
O     3.517000000    -8.247000000    -0.613000000
H     3.764000000    -7.399000000    -0.984000000
H     2.926000000    -8.030000000     0.108000000
O     5.154000000    -7.381000000     1.842000000
H     5.301000000    -7.591000000     0.919000000
H     4.208000000    -7.472000000     1.959000000
O     3.275000000    -7.102000000     6.452000000
H     2.619000000    -7.786000000     6.586000000
H     2.915000000    -6.558000000     5.752000000
O     0.304000000    -9.251000000     3.610000000
H     1.146000000    -9.512000000     3.982000000
H     0.245000000    -9.738000000     2.788000000
O     7.355000000    -2.657000000     3.622000000
H     7.756000000    -3.280000000     3.017000000
H     6.427000000    -2.892000000     3.628000000
O     5.703000000    -6.722000000    -2.768000000
H     5.181000000    -6.072000000    -3.240000000
H     6.531000000    -6.757000000    -3.247000000
O     3.696000000    -5.652000000    -0.837000000
H     3.462000000    -5.155000000    -0.054000000
H     3.377000000    -5.118000000    -1.565000000
O     8.437000000    -2.847000000     0.459000000
H     8.338000000    -3.732000000     0.107000000
H     7.544000000    -2.506000000     0.504000000
O     6.896000000    -5.479000000    -0.361000000
H     7.025000000    -6.175000000     0.284000000
H     6.445000000    -5.908000000    -1.088000000
