201
-1263.20404
C     4.297000000     0.280000000    -2.884000000
H     4.640000000     1.299000000    -2.722000000
C     3.077000000     0.044000000    -3.493000000
C     2.618000000    -1.235000000    -3.654000000
H     1.561000000    -1.387000000    -3.860000000
C     2.075000000     1.209000000    -3.642000000
O     2.757000000     2.459000000    -3.517000000
H     1.385000000     1.192000000    -2.786000000
O     1.207000000     1.164000000    -4.844000000
C    -0.143000000     1.292000000    -4.580000000
C    -0.889000000     0.093000000    -4.530000000
H    -0.446000000    -0.884000000    -4.706000000
C    -2.267000000     0.213000000    -4.167000000
O    -2.957000000    -0.935000000    -3.974000000
C    -2.873000000     1.471000000    -3.857000000
C    -4.288000000     1.589000000    -3.327000000
H    -4.727000000     2.589000000    -3.313000000
C    -4.373000000     1.302000000    -1.867000000
C    -4.135000000     2.305000000    -0.935000000
H    -4.008000000     3.239000000    -1.477000000
H    -4.878000000     0.880000000    -3.911000000
C    -2.024000000     2.541000000    -3.914000000
H    -2.413000000     3.516000000    -3.632000000
C    -0.656000000     2.522000000    -4.209000000
C     0.177000000     3.798000000    -4.167000000
H    -0.483000000     4.656000000    -4.307000000
H     0.843000000     3.756000000    -5.031000000
C     0.943000000     3.932000000    -2.876000000
C     0.283000000     4.575000000    -1.859000000
H    -0.658000000     5.102000000    -1.996000000
C     2.214000000     3.370000000    -2.620000000
C     2.802000000     3.522000000    -1.386000000
H     3.773000000     3.063000000    -1.214000000
C     2.094000000     4.171000000    -0.382000000
O     2.636000000     4.255000000     0.846000000
C     2.150000000     3.238000000     1.781000000
C     3.196000000     2.469000000     2.617000000
C     2.802000000     1.684000000     3.736000000
H     1.767000000     1.655000000     4.066000000
C     4.467000000     2.235000000     2.104000000
H     4.760000000     2.661000000     1.147000000
O     1.316000000     4.037000000     2.610000000
H     1.539000000     2.588000000     1.138000000
C     0.820000000     4.703000000    -0.579000000
C     0.132000000     5.535000000     0.461000000
H    -0.453000000     6.325000000    -0.015000000
H     0.817000000     6.123000000     1.075000000
C    -0.678000000     4.645000000     1.341000000
C    -2.045000000     4.469000000     1.137000000
H    -2.540000000     5.021000000     0.342000000
C    -0.006000000     3.913000000     2.330000000
C    -0.703000000     2.983000000     3.134000000
H    -0.263000000     2.441000000     3.967000000
C    -2.021000000     2.775000000     2.824000000
O    -2.594000000     1.717000000     3.442000000
C    -2.793000000     0.498000000     2.784000000
C    -2.524000000    -0.683000000     3.640000000
C    -1.873000000    -0.607000000     4.914000000
H    -1.654000000     0.397000000     5.269000000
C    -2.849000000    -1.925000000     3.162000000
H    -3.299000000    -2.037000000     2.179000000
O    -4.109000000     0.468000000     2.192000000
H    -2.063000000     0.382000000     1.970000000
C    -2.725000000     3.553000000     1.867000000
C    -4.101000000     3.200000000     1.510000000
H    -4.516000000     4.079000000     1.013000000
H    -4.746000000     2.993000000     2.367000000
C    -4.147000000     2.102000000     0.474000000
C    -4.201000000     0.787000000     0.883000000
C    -4.459000000    -0.238000000    -0.009000000
H    -4.650000000    -1.258000000     0.315000000
C    -4.500000000    -0.017000000    -1.387000000
O    -4.545000000    -1.059000000    -2.228000000
C    -3.253000000    -1.506000000    -2.678000000
H    -2.553000000    -0.974000000    -2.017000000
C    -3.106000000    -3.019000000    -2.685000000
C    -2.173000000    -3.568000000    -3.609000000
H    -1.552000000    -2.922000000    -4.225000000
C    -3.842000000    -3.769000000    -1.783000000
H    -4.538000000    -3.219000000    -1.154000000
C    -3.691000000    -5.197000000    -1.728000000
O    -4.287000000    -6.042000000    -0.835000000
C    -2.803000000    -5.706000000    -2.670000000
H    -2.722000000    -6.788000000    -2.598000000
C    -2.026000000    -4.997000000    -3.591000000
O    -1.103000000    -5.712000000    -4.370000000
C     0.179000000    -5.268000000    -4.616000000
C     0.960000000    -4.588000000    -3.645000000
H     0.643000000    -4.384000000    -2.626000000
C     0.685000000    -5.564000000    -5.848000000
H     0.067000000    -6.044000000    -6.603000000
C     1.914000000    -4.975000000    -6.197000000
H     2.208000000    -5.010000000    -7.243000000
C     2.695000000    -4.316000000    -5.306000000
H     3.695000000    -3.953000000    -5.531000000
C     2.196000000    -4.169000000    -4.022000000
O     2.872000000    -3.508000000    -3.028000000
C     3.418000000    -2.289000000    -3.229000000
C     4.670000000    -2.048000000    -2.705000000
H     5.286000000    -2.814000000    -2.241000000
C     5.137000000    -0.711000000    -2.555000000
O     6.409000000    -0.518000000    -2.090000000
C     6.695000000     0.558000000    -1.201000000
C     6.474000000     0.523000000     0.120000000
H     6.028000000    -0.340000000     0.608000000
C     7.355000000     1.703000000    -1.686000000
H     7.612000000     1.737000000    -2.742000000
C     7.770000000     2.723000000    -0.818000000
H     8.302000000     3.568000000    -1.250000000
C     7.655000000     2.549000000     0.527000000
H     7.956000000     3.341000000     1.207000000
C     6.935000000     1.498000000     1.026000000
O     6.621000000     1.417000000     2.314000000
C     5.355000000     1.515000000     2.829000000
C     5.028000000     0.831000000     4.013000000
H     5.775000000     0.254000000     4.553000000
C     3.733000000     0.917000000     4.424000000
O     3.320000000     0.068000000     5.493000000
C     2.258000000     0.267000000     6.343000000
C     1.239000000    -0.650000000     6.182000000
H     1.337000000    -1.360000000     5.364000000
C     2.124000000     1.306000000     7.278000000
H     2.846000000     2.117000000     7.335000000
C     0.917000000     1.345000000     8.067000000
H     0.743000000     2.176000000     8.746000000
C    -0.070000000     0.328000000     7.854000000
H    -0.957000000     0.363000000     8.482000000
C     0.104000000    -0.652000000     6.928000000
O    -0.798000000    -1.681000000     6.775000000
C    -1.570000000    -1.758000000     5.630000000
C    -2.139000000    -2.952000000     5.220000000
H    -1.871000000    -3.832000000     5.799000000
C    -2.677000000    -3.070000000     3.978000000
O    -3.094000000    -4.252000000     3.571000000
C    -4.029000000    -4.539000000     2.569000000
C    -5.351000000    -4.406000000     2.917000000
H    -5.609000000    -3.939000000     3.864000000
C    -6.320000000    -4.858000000     2.016000000
H    -7.365000000    -4.712000000     2.277000000
C    -5.970000000    -5.467000000     0.816000000
H    -6.767000000    -5.981000000     0.284000000
C    -4.628000000    -5.633000000     0.466000000
C    -3.673000000    -5.092000000     1.332000000
H    -2.613000000    -5.192000000     1.111000000
O     4.118000000    -6.333000000     1.833000000
H     3.487000000    -7.052000000     1.864000000
H     3.600000000    -5.572000000     1.567000000
O     6.152000000    -7.451000000    -0.371000000
H     6.096000000    -7.051000000     0.497000000
H     6.962000000    -7.103000000    -0.744000000
O     0.518000000    -4.788000000     6.103000000
H    -0.192000000    -4.900000000     6.735000000
H     0.157000000    -4.202000000     5.438000000
O     0.091000000    -7.131000000    -0.561000000
H     0.124000000    -6.334000000    -0.031000000
H    -0.765000000    -7.512000000    -0.367000000
O     0.677000000    -3.570000000     3.650000000
H     0.289000000    -3.029000000     2.963000000
H     1.585000000    -3.272000000     3.706000000
O    -2.342000000    -8.121000000     0.112000000
H    -2.694000000    -8.993000000    -0.064000000
H    -3.015000000    -7.521000000    -0.209000000
O     4.847000000    -3.201000000     1.618000000
H     4.061000000    -3.638000000     1.291000000
H     4.646000000    -3.001000000     2.533000000
O    -0.488000000    -6.240000000     3.015000000
H    -0.668000000    -5.437000000     3.504000000
H     0.059000000    -5.957000000     2.283000000
O     1.994000000    -8.567000000     0.949000000
H     1.308000000    -8.262000000     0.356000000
H     1.705000000    -8.282000000     1.816000000
O     4.703000000    -9.309000000    -1.407000000
H     5.207000000    -8.624000000    -0.968000000
H     3.799000000    -9.154000000    -1.135000000
O     7.581000000    -3.247000000     1.575000000
H     7.831000000    -3.549000000     0.701000000
H     6.631000000    -3.137000000     1.527000000
O     2.569000000    -7.063000000     6.226000000
H     2.222000000    -7.278000000     7.091000000
H     2.402000000    -6.126000000     6.126000000
O    -2.126000000    -8.255000000     2.842000000
H    -1.624000000    -7.449000000     2.966000000
H    -2.058000000    -8.438000000     1.905000000
O     1.758000000    -7.723000000     3.554000000
H     1.226000000    -6.953000000     3.354000000
H     1.941000000    -7.651000000     4.490000000
O     6.638000000    -4.932000000     3.353000000
H     7.006000000    -4.435000000     2.622000000
H     5.742000000    -5.130000000     3.081000000
O     5.463000000    -6.477000000    -3.796000000
H     5.100000000    -7.287000000    -4.154000000
H     4.789000000    -6.157000000    -3.195000000
O     3.838000000    -5.743000000    -1.253000000
H     3.468000000    -5.092000000    -0.656000000
H     4.525000000    -6.172000000    -0.743000000
O     4.018000000    -2.522000000     4.222000000
H     3.717000000    -3.026000000     4.978000000
H     3.982000000    -1.610000000     4.513000000
O     2.066000000    -7.679000000    -2.281000000
H     1.230000000    -7.715000000    -1.816000000
H     2.496000000    -6.895000000    -1.942000000
