201
-1255.87467
C     4.434000000     0.290000000    -2.616000000
H     4.672000000     1.148000000    -1.992000000
C     3.315000000     0.272000000    -3.444000000
C     3.182000000    -0.884000000    -4.254000000
H     2.305000000    -0.879000000    -4.895000000
C     2.256000000     1.315000000    -3.349000000
O     2.906000000     2.563000000    -3.146000000
H     1.664000000     1.146000000    -2.437000000
O     1.467000000     1.436000000    -4.488000000
C     0.065000000     1.481000000    -4.302000000
C    -0.606000000     0.278000000    -4.383000000
H    -0.049000000    -0.646000000    -4.520000000
C    -1.974000000     0.304000000    -4.152000000
O    -2.788000000    -0.930000000    -4.061000000
C    -2.604000000     1.486000000    -3.719000000
C    -4.082000000     1.514000000    -3.336000000
H    -4.504000000     2.508000000    -3.502000000
C    -4.229000000     1.211000000    -1.905000000
C    -4.330000000     2.245000000    -0.940000000
H    -4.221000000     3.282000000    -1.245000000
H    -4.645000000     0.948000000    -4.082000000
C    -1.885000000     2.699000000    -3.686000000
H    -2.430000000     3.574000000    -3.339000000
C    -0.546000000     2.698000000    -3.967000000
C     0.315000000     3.965000000    -3.848000000
H    -0.179000000     4.924000000    -4.021000000
H     1.063000000     3.944000000    -4.643000000
C     0.954000000     3.926000000    -2.463000000
C     0.273000000     4.566000000    -1.481000000
H    -0.718000000     4.965000000    -1.682000000
C     2.250000000     3.423000000    -2.257000000
C     2.756000000     3.512000000    -0.958000000
H     3.687000000     3.037000000    -0.660000000
C     2.082000000     4.263000000     0.010000000
O     2.518000000     4.179000000     1.310000000
C     1.953000000     3.218000000     2.296000000
C     3.013000000     2.468000000     3.108000000
C     2.735000000     2.026000000     4.436000000
H     1.813000000     2.268000000     4.959000000
C     4.180000000     2.095000000     2.414000000
H     4.367000000     2.440000000     1.401000000
O     0.963000000     3.895000000     3.126000000
H     1.468000000     2.438000000     1.690000000
C     0.791000000     4.744000000    -0.247000000
C     0.008000000     5.445000000     0.863000000
H    -0.621000000     6.230000000     0.439000000
H     0.681000000     6.033000000     1.490000000
C    -0.872000000     4.488000000     1.717000000
C    -2.195000000     4.237000000     1.296000000
H    -2.641000000     4.668000000     0.403000000
C    -0.367000000     3.814000000     2.823000000
C    -1.155000000     2.957000000     3.553000000
H    -0.718000000     2.409000000     4.384000000
C    -2.450000000     2.738000000     3.173000000
O    -3.061000000     1.569000000     3.650000000
C    -3.176000000     0.399000000     2.758000000
C    -2.865000000    -0.856000000     3.587000000
C    -1.957000000    -0.837000000     4.668000000
H    -1.630000000     0.123000000     5.060000000
C    -3.433000000    -2.067000000     3.223000000
H    -4.012000000    -2.076000000     2.302000000
O    -4.426000000     0.384000000     2.176000000
H    -2.460000000     0.465000000     1.926000000
C    -2.930000000     3.358000000     1.996000000
C    -4.285000000     3.133000000     1.454000000
H    -4.644000000     4.060000000     1.002000000
H    -5.041000000     2.961000000     2.224000000
C    -4.411000000     2.009000000     0.413000000
C    -4.473000000     0.695000000     0.837000000
C    -4.457000000    -0.317000000    -0.062000000
H    -4.558000000    -1.313000000     0.362000000
C    -4.261000000    -0.075000000    -1.397000000
O    -4.169000000    -1.147000000    -2.200000000
C    -2.828000000    -1.449000000    -2.693000000
H    -2.104000000    -0.920000000    -2.057000000
C    -2.531000000    -2.953000000    -2.714000000
C    -1.466000000    -3.476000000    -3.490000000
H    -0.990000000    -2.878000000    -4.264000000
C    -3.203000000    -3.783000000    -1.840000000
H    -4.024000000    -3.334000000    -1.286000000
C    -2.900000000    -5.123000000    -1.644000000
O    -3.728000000    -5.929000000    -0.908000000
C    -1.962000000    -5.646000000    -2.528000000
H    -1.812000000    -6.719000000    -2.439000000
C    -1.194000000    -4.849000000    -3.376000000
O    -0.181000000    -5.444000000    -4.083000000
C     0.688000000    -4.861000000    -5.007000000
C     1.826000000    -4.200000000    -4.593000000
H     2.037000000    -4.124000000    -3.530000000
C     0.444000000    -4.980000000    -6.353000000
H    -0.452000000    -5.483000000    -6.708000000
C     1.357000000    -4.387000000    -7.241000000
H     1.164000000    -4.567000000    -8.295000000
C     2.469000000    -3.646000000    -6.817000000
H     3.077000000    -3.170000000    -7.582000000
C     2.743000000    -3.588000000    -5.482000000
O     3.910000000    -3.019000000    -5.000000000
C     4.062000000    -1.913000000    -4.193000000
C     5.204000000    -1.870000000    -3.449000000
H     5.878000000    -2.723000000    -3.445000000
C     5.374000000    -0.762000000    -2.576000000
O     6.516000000    -0.796000000    -1.820000000
C     6.872000000     0.274000000    -1.024000000
C     6.690000000     0.134000000     0.381000000
H     6.355000000    -0.826000000     0.764000000
C     7.112000000     1.553000000    -1.543000000
H     7.078000000     1.770000000    -2.607000000
C     7.161000000     2.694000000    -0.719000000
H     7.189000000     3.705000000    -1.117000000
C     7.080000000     2.527000000     0.616000000
H     6.995000000     3.412000000     1.241000000
C     6.742000000     1.267000000     1.166000000
O     6.455000000     1.134000000     2.518000000
C     5.182000000     1.417000000     3.104000000
C     4.934000000     0.944000000     4.407000000
H     5.735000000     0.417000000     4.918000000
C     3.673000000     1.175000000     5.015000000
O     3.402000000     0.632000000     6.287000000
C     2.086000000     0.244000000     6.789000000
C     1.326000000    -0.847000000     6.306000000
H     1.802000000    -1.433000000     5.524000000
C     1.624000000     1.125000000     7.744000000
H     2.271000000     1.913000000     8.120000000
C     0.307000000     0.986000000     8.129000000
H    -0.044000000     1.734000000     8.835000000
C    -0.497000000    -0.089000000     7.698000000
H    -1.479000000    -0.164000000     8.156000000
C    -0.017000000    -1.026000000     6.778000000
O    -0.765000000    -2.071000000     6.379000000
C    -1.667000000    -2.058000000     5.333000000
C    -2.222000000    -3.225000000     4.966000000
H    -1.981000000    -4.149000000     5.486000000
C    -3.081000000    -3.276000000     3.890000000
O    -3.593000000    -4.470000000     3.606000000
C    -4.364000000    -4.741000000     2.491000000
C    -5.750000000    -4.832000000     2.488000000
H    -6.299000000    -4.651000000     3.409000000
C    -6.465000000    -5.178000000     1.322000000
H    -7.541000000    -5.027000000     1.300000000
C    -5.767000000    -5.500000000     0.227000000
H    -6.256000000    -5.916000000    -0.651000000
C    -4.403000000    -5.483000000     0.204000000
C    -3.693000000    -5.159000000     1.335000000
H    -2.609000000    -5.231000000     1.282000000
O     5.203000000    -3.446000000     1.581000000
H     6.074000000    -3.626000000     1.227000000
H     4.604000000    -3.883000000     0.975000000
O     0.092000000    -7.694000000     0.554000000
H     0.713000000    -6.991000000     0.364000000
H    -0.244000000    -7.488000000     1.426000000
O     1.597000000    -1.171000000     3.007000000
H     1.131000000    -1.755000000     2.409000000
H     1.790000000    -0.395000000     2.481000000
O    -1.941000000    -7.265000000     3.787000000
H    -1.245000000    -7.879000000     3.551000000
H    -1.685000000    -6.442000000     3.370000000
O     6.301000000    -8.906000000    -0.537000000
H     5.868000000    -9.725000000    -0.297000000
H     5.753000000    -8.541000000    -1.233000000
O     1.970000000    -5.490000000     4.850000000
H     2.388000000    -4.635000000     4.952000000
H     2.662000000    -6.056000000     4.507000000
O     0.650000000    -8.742000000     3.284000000
H     1.102000000    -9.167000000     2.555000000
H     1.057000000    -9.112000000     4.067000000
O     5.426000000    -4.971000000    -1.944000000
H     6.166000000    -4.654000000    -1.426000000
H     4.668000000    -4.865000000    -1.370000000
O     3.785000000    -3.312000000     3.738000000
H     2.936000000    -2.928000000     3.517000000
H     4.274000000    -3.302000000     2.915000000
O     3.514000000    -7.540000000     0.184000000
H     4.275000000    -7.458000000     0.760000000
H     3.052000000    -6.707000000     0.279000000
O     5.450000000    -5.349000000    -4.616000000
H     5.831000000    -5.095000000    -3.775000000
H     4.909000000    -4.601000000    -4.869000000
O     7.451000000    -3.941000000    -0.312000000
H     8.119000000    -3.371000000    -0.693000000
H     7.823000000    -4.221000000     0.525000000
O     7.594000000    -7.966000000     1.515000000
H     7.407000000    -8.442000000     0.706000000
H     6.803000000    -7.452000000     1.678000000
O     0.034000000    -5.461000000     2.670000000
H     0.571000000    -5.460000000     3.463000000
H     0.667000000    -5.499000000     1.953000000
O     4.166000000    -7.444000000    -2.744000000
H     3.768000000    -7.207000000    -1.906000000
H     4.763000000    -6.722000000    -2.938000000
O     5.172000000    -6.404000000     2.437000000
H     4.838000000    -5.586000000     2.069000000
H     5.595000000    -6.144000000     3.255000000
O     4.670000000    -9.085000000     2.657000000
H     4.779000000    -9.231000000     3.597000000
H     4.699000000    -8.134000000     2.558000000
O     7.253000000    -2.904000000     4.050000000
H     6.698000000    -2.775000000     3.281000000
H     6.714000000    -3.419000000     4.651000000
O     1.887000000    -9.567000000     0.913000000
H     2.588000000    -8.959000000     0.676000000
H     1.082000000    -9.065000000     0.790000000
