201
-1276.40236
C    -4.693000000    -1.564000000    -2.202000000
H    -4.278000000    -0.800000000    -2.854000000
C    -4.909000000    -1.273000000    -0.870000000
C    -5.255000000    -2.379000000    -0.067000000
H    -5.368000000    -2.237000000     1.005000000
C    -4.509000000     0.102000000    -0.366000000
O    -4.883000000     1.168000000    -1.211000000
H    -3.425000000     0.073000000    -0.184000000
O    -5.088000000     0.385000000     0.914000000
C    -4.172000000     0.854000000     1.857000000
C    -3.429000000    -0.035000000     2.644000000
H    -3.551000000    -1.101000000     2.470000000
C    -2.582000000     0.459000000     3.664000000
O    -1.923000000    -0.442000000     4.385000000
C    -2.334000000     1.833000000     3.756000000
C    -1.369000000     2.418000000     4.809000000
H    -1.665000000     3.442000000     5.043000000
C     0.089000000     2.378000000     4.332000000
C     0.633000000     3.502000000     3.640000000
H     0.145000000     4.462000000     3.782000000
H    -1.344000000     1.776000000     5.692000000
C    -3.117000000     2.717000000     2.933000000
H    -3.008000000     3.787000000     3.086000000
C    -3.969000000     2.227000000     1.920000000
C    -4.599000000     3.156000000     0.980000000
H    -4.625000000     4.165000000     1.396000000
H    -5.684000000     3.052000000     0.915000000
C    -3.793000000     3.180000000    -0.313000000
C    -2.801000000     4.067000000    -0.467000000
H    -2.530000000     4.715000000     0.362000000
C    -4.006000000     2.249000000    -1.306000000
C    -3.255000000     2.226000000    -2.471000000
H    -3.328000000     1.460000000    -3.239000000
C    -2.216000000     3.134000000    -2.582000000
O    -1.287000000     2.958000000    -3.597000000
C     0.055000000     2.543000000    -3.234000000
C     0.565000000     1.571000000    -4.250000000
C     1.916000000     1.480000000    -4.692000000
H     2.647000000     2.161000000    -4.264000000
C    -0.255000000     0.527000000    -4.692000000
H    -1.240000000     0.530000000    -4.232000000
O     1.032000000     3.573000000    -3.159000000
H     0.035000000     1.944000000    -2.312000000
C    -1.975000000     4.081000000    -1.599000000
C    -0.893000000     5.096000000    -1.615000000
H    -1.169000000     6.027000000    -1.117000000
H    -0.655000000     5.387000000    -2.641000000
C     0.453000000     4.612000000    -1.091000000
C     0.812000000     4.869000000     0.217000000
H     0.151000000     5.390000000     0.905000000
C     1.364000000     3.977000000    -1.867000000
C     2.631000000     3.631000000    -1.459000000
H     3.224000000     3.142000000    -2.227000000
C     3.017000000     3.893000000    -0.158000000
O     4.061000000     3.166000000     0.285000000
C     3.764000000     1.931000000     1.059000000
C     4.692000000     0.752000000     0.619000000
C     5.264000000     0.818000000    -0.661000000
H     5.186000000     1.729000000    -1.248000000
C     4.834000000    -0.418000000     1.400000000
H     4.237000000    -0.468000000     2.307000000
O     3.843000000     2.127000000     2.436000000
H     2.747000000     1.562000000     0.859000000
C     2.090000000     4.454000000     0.753000000
C     2.484000000     4.611000000     2.216000000
H     2.105000000     5.570000000     2.575000000
H     3.572000000     4.609000000     2.118000000
C     1.925000000     3.499000000     3.028000000
C     2.658000000     2.319000000     3.138000000
C     2.120000000     1.169000000     3.757000000
H     2.634000000     0.213000000     3.813000000
C     0.887000000     1.222000000     4.452000000
O     0.390000000    -0.020000000     4.938000000
C    -0.533000000    -0.664000000     3.988000000
H    -0.319000000    -0.267000000     2.984000000
C    -0.301000000    -2.200000000     3.959000000
C    -1.187000000    -3.053000000     3.369000000
H    -2.173000000    -2.698000000     3.081000000
C     0.918000000    -2.662000000     4.395000000
H     1.573000000    -2.022000000     4.981000000
C     1.271000000    -3.995000000     4.283000000
O     2.470000000    -4.483000000     4.854000000
C     0.422000000    -4.915000000     3.678000000
H     0.700000000    -5.960000000     3.570000000
C    -0.875000000    -4.440000000     3.322000000
O    -1.696000000    -5.316000000     2.714000000
C    -3.077000000    -5.235000000     2.711000000
C    -3.707000000    -5.044000000     1.489000000
H    -3.163000000    -4.903000000     0.559000000
C    -3.756000000    -5.360000000     3.905000000
H    -3.219000000    -5.686000000     4.792000000
C    -5.144000000    -5.183000000     3.854000000
H    -5.747000000    -5.087000000     4.752000000
C    -5.799000000    -5.022000000     2.630000000
H    -6.873000000    -4.904000000     2.516000000
C    -5.084000000    -4.933000000     1.481000000
O    -5.770000000    -4.738000000     0.275000000
C    -5.393000000    -3.684000000    -0.550000000
C    -5.328000000    -3.877000000    -1.926000000
H    -5.366000000    -4.894000000    -2.306000000
C    -5.007000000    -2.833000000    -2.729000000
O    -4.876000000    -3.024000000    -4.090000000
C    -4.184000000    -2.178000000    -4.952000000
C    -2.796000000    -2.240000000    -4.934000000
H    -2.289000000    -3.036000000    -4.394000000
C    -4.880000000    -1.347000000    -5.767000000
H    -5.955000000    -1.378000000    -5.610000000
C    -4.194000000    -0.431000000    -6.562000000
H    -4.802000000     0.304000000    -7.084000000
C    -2.770000000    -0.427000000    -6.518000000
H    -2.246000000     0.243000000    -7.194000000
C    -2.117000000    -1.408000000    -5.806000000
O    -0.688000000    -1.501000000    -5.984000000
C     0.145000000    -0.491000000    -5.577000000
C     1.393000000    -0.444000000    -6.055000000
H     1.750000000    -1.278000000    -6.652000000
C     2.307000000     0.481000000    -5.571000000
O     3.647000000     0.348000000    -5.895000000
C     4.630000000     0.829000000    -5.137000000
C     5.149000000     0.027000000    -4.158000000
H     4.902000000    -1.028000000    -4.079000000
C     5.151000000     2.108000000    -5.392000000
H     4.764000000     2.750000000    -6.180000000
C     6.286000000     2.537000000    -4.674000000
H     6.724000000     3.518000000    -4.836000000
C     6.846000000     1.745000000    -3.629000000
H     7.567000000     2.215000000    -2.965000000
C     6.223000000     0.516000000    -3.378000000
O     6.567000000    -0.282000000    -2.349000000
C     6.002000000    -0.253000000    -1.129000000
C     6.118000000    -1.413000000    -0.366000000
H     6.601000000    -2.304000000    -0.759000000
C     5.539000000    -1.495000000     0.855000000
O     5.567000000    -2.758000000     1.437000000
C     5.222000000    -3.056000000     2.760000000
C     6.173000000    -2.891000000     3.764000000
H     7.171000000    -2.560000000     3.488000000
C     5.908000000    -3.253000000     5.078000000
H     6.596000000    -3.174000000     5.916000000
C     4.681000000    -3.854000000     5.364000000
H     4.446000000    -4.196000000     6.369000000
C     3.644000000    -3.903000000     4.425000000
C     3.955000000    -3.588000000     3.087000000
H     3.205000000    -3.823000000     2.336000000
O    -1.581000000    -6.435000000    -0.716000000
H    -0.873000000    -5.969000000    -0.272000000
H    -1.785000000    -7.170000000    -0.136000000
O    -0.123000000    -7.059000000    -5.605000000
H    -1.068000000    -6.982000000    -5.474000000
H     0.224000000    -7.255000000    -4.735000000
O     0.446000000    -7.674000000    -2.997000000
H     0.415000000    -6.752000000    -2.743000000
H     0.113000000    -8.144000000    -2.232000000
O     3.725000000    -6.196000000     1.731000000
H     4.565000000    -5.786000000     1.524000000
H     3.098000000    -5.766000000     1.150000000
O     4.659000000    -4.008000000    -2.081000000
H     4.226000000    -4.297000000    -1.278000000
H     4.130000000    -3.272000000    -2.386000000
O     2.705000000    -2.094000000    -3.329000000
H     1.889000000    -2.243000000    -2.852000000
H     2.636000000    -1.193000000    -3.647000000
O    -0.071000000    -9.126000000     2.736000000
H     0.049000000    -8.344000000     3.276000000
H    -0.240000000    -9.828000000     3.365000000
O     4.978000000    -8.653000000     0.447000000
H     4.319000000    -7.958000000     0.458000000
H     5.380000000    -8.616000000     1.314000000
O     6.550000000    -5.627000000     0.856000000
H     7.309000000    -5.260000000     1.311000000
H     6.652000000    -5.338000000    -0.051000000
O     3.053000000    -7.124000000    -1.602000000
H     2.288000000    -7.598000000    -1.274000000
H     3.101000000    -6.340000000    -1.055000000
O     1.130000000   -10.866000000    -0.488000000
H     0.343000000   -10.781000000    -1.026000000
H     1.359000000    -9.966000000    -0.254000000
O     3.288000000    -9.170000000    -3.653000000
H     2.837000000    -9.692000000    -4.317000000
H     2.783000000    -8.358000000    -3.603000000
O    -0.939000000    -9.449000000    -1.539000000
H    -1.355000000    -9.194000000    -0.715000000
H    -1.670000000    -9.640000000    -2.127000000
O     3.166000000    -7.892000000     4.024000000
H     3.261000000    -7.277000000     3.296000000
H     3.051000000    -8.744000000     3.603000000
O     0.936000000    -8.134000000     0.393000000
H     0.490000000    -8.377000000     1.205000000
H     0.915000000    -7.177000000     0.384000000
O     1.031000000    -4.386000000    -4.933000000
H     0.178000000    -4.484000000    -4.510000000
H     1.454000000    -5.237000000    -4.818000000
O     4.077000000    -6.287000000    -3.808000000
H     4.093000000    -5.387000000    -3.482000000
H     4.045000000    -6.827000000    -3.018000000
O    -2.325000000    -8.468000000     0.914000000
H    -3.172000000    -8.356000000     1.344000000
H    -1.728000000    -8.713000000     1.621000000
O    -1.300000000    -5.156000000    -3.229000000
H    -1.455000000    -5.642000000    -2.419000000
H    -1.980000000    -5.465000000    -3.828000000
