201
-1243.33923
C     4.123000000     0.292000000    -3.177000000
H     4.548000000     1.171000000    -2.698000000
C     2.764000000     0.377000000    -3.496000000
C     2.157000000    -0.746000000    -3.983000000
H     1.078000000    -0.815000000    -4.095000000
C     1.920000000     1.594000000    -3.064000000
O     2.848000000     2.691000000    -2.739000000
H     1.334000000     1.426000000    -2.148000000
O     1.112000000     1.936000000    -4.221000000
C    -0.137000000     2.488000000    -3.992000000
C    -1.161000000     1.561000000    -4.284000000
H    -0.968000000     0.591000000    -4.733000000
C    -2.405000000     1.813000000    -3.771000000
O    -3.313000000     0.800000000    -3.850000000
C    -2.691000000     2.920000000    -3.002000000
C    -4.091000000     3.178000000    -2.416000000
H    -4.323000000     4.243000000    -2.351000000
C    -4.230000000     2.521000000    -1.028000000
C    -3.981000000     3.251000000     0.150000000
H    -3.581000000     4.262000000     0.164000000
H    -4.921000000     2.869000000    -3.056000000
C    -1.681000000     3.886000000    -2.847000000
H    -1.904000000     4.819000000    -2.336000000
C    -0.411000000     3.668000000    -3.287000000
C     0.630000000     4.709000000    -2.866000000
H     0.208000000     5.705000000    -2.721000000
H     1.366000000     4.788000000    -3.670000000
C     1.392000000     4.261000000    -1.619000000
C     0.949000000     4.845000000    -0.421000000
H     0.168000000     5.600000000    -0.378000000
C     2.559000000     3.482000000    -1.654000000
C     3.217000000     3.173000000    -0.447000000
H     4.113000000     2.560000000    -0.408000000
C     2.740000000     3.668000000     0.734000000
O     3.265000000     3.054000000     1.836000000
C     2.448000000     2.108000000     2.569000000
C     3.500000000     1.057000000     2.902000000
C     3.430000000     0.555000000     4.166000000
H     2.609000000     0.851000000     4.814000000
C     4.346000000     0.447000000     2.003000000
H     4.212000000     0.656000000     0.945000000
O     1.822000000     2.794000000     3.670000000
H     1.698000000     1.696000000     1.877000000
C     1.559000000     4.513000000     0.787000000
C     1.075000000     5.052000000     2.119000000
H     0.658000000     6.025000000     1.850000000
H     1.935000000     5.147000000     2.785000000
C     0.147000000     4.066000000     2.747000000
C    -1.228000000     4.145000000     2.489000000
H    -1.651000000     4.920000000     1.855000000
C     0.542000000     3.043000000     3.577000000
C    -0.317000000     2.120000000     4.119000000
H    -0.013000000     1.321000000     4.790000000
C    -1.681000000     2.292000000     3.958000000
O    -2.523000000     1.271000000     4.294000000
C    -2.714000000     0.358000000     3.220000000
C    -2.457000000    -1.159000000     3.613000000
C    -1.456000000    -1.507000000     4.525000000
H    -0.939000000    -0.685000000     5.012000000
C    -3.153000000    -2.162000000     2.964000000
H    -3.911000000    -1.907000000     2.228000000
O    -4.024000000     0.468000000     2.634000000
H    -2.034000000     0.542000000     2.375000000
C    -2.209000000     3.329000000     3.107000000
C    -3.701000000     3.335000000     2.696000000
H    -4.072000000     4.361000000     2.666000000
H    -4.189000000     2.880000000     3.560000000
C    -4.031000000     2.588000000     1.452000000
C    -4.189000000     1.192000000     1.468000000
C    -4.519000000     0.510000000     0.293000000
H    -4.600000000    -0.573000000     0.347000000
C    -4.491000000     1.133000000    -0.939000000
O    -4.543000000     0.304000000    -2.093000000
C    -3.388000000    -0.089000000    -2.775000000
H    -2.527000000     0.079000000    -2.112000000
C    -3.370000000    -1.524000000    -3.121000000
C    -2.841000000    -2.005000000    -4.302000000
H    -2.308000000    -1.268000000    -4.896000000
C    -3.901000000    -2.510000000    -2.268000000
H    -4.341000000    -2.273000000    -1.303000000
C    -3.911000000    -3.839000000    -2.573000000
O    -4.550000000    -4.790000000    -1.913000000
C    -3.465000000    -4.243000000    -3.818000000
H    -3.581000000    -5.312000000    -3.980000000
C    -2.913000000    -3.333000000    -4.718000000
O    -2.359000000    -3.721000000    -5.904000000
C    -1.114000000    -3.262000000    -6.247000000
C    -0.039000000    -3.202000000    -5.305000000
H    -0.191000000    -3.425000000    -4.252000000
C    -0.838000000    -2.903000000    -7.572000000
H    -1.604000000    -2.995000000    -8.338000000
C     0.456000000    -2.590000000    -7.990000000
H     0.697000000    -2.338000000    -9.019000000
C     1.486000000    -2.584000000    -7.052000000
H     2.461000000    -2.288000000    -7.430000000
C     1.237000000    -2.930000000    -5.761000000
O     2.277000000    -3.009000000    -4.860000000
C     2.914000000    -1.908000000    -4.335000000
C     4.276000000    -1.964000000    -4.025000000
H     4.861000000    -2.843000000    -4.284000000
C     4.890000000    -0.847000000    -3.476000000
O     6.234000000    -0.941000000    -3.146000000
C     6.708000000    -0.574000000    -1.933000000
C     6.092000000    -1.085000000    -0.846000000
H     5.291000000    -1.817000000    -0.914000000
C     7.816000000     0.302000000    -1.916000000
H     8.292000000     0.600000000    -2.846000000
C     8.328000000     0.682000000    -0.651000000
H     9.149000000     1.384000000    -0.532000000
C     7.657000000     0.146000000     0.501000000
H     8.012000000     0.237000000     1.524000000
C     6.567000000    -0.700000000     0.371000000
O     5.964000000    -1.252000000     1.482000000
C     5.095000000    -0.636000000     2.392000000
C     5.124000000    -1.116000000     3.707000000
H     5.770000000    -1.967000000     3.906000000
C     4.214000000    -0.555000000     4.603000000
O     3.911000000    -1.199000000     5.807000000
C     2.746000000    -1.344000000     6.472000000
C     1.643000000    -1.937000000     5.843000000
H     1.812000000    -2.194000000     4.801000000
C     2.702000000    -1.077000000     7.821000000
H     3.515000000    -0.626000000     8.383000000
C     1.528000000    -1.376000000     8.547000000
H     1.407000000    -1.047000000     9.575000000
C     0.458000000    -2.037000000     7.972000000
H    -0.433000000    -2.421000000     8.461000000
C     0.469000000    -2.332000000     6.573000000
O    -0.548000000    -3.151000000     6.095000000
C    -1.244000000    -2.814000000     4.965000000
C    -1.945000000    -3.832000000     4.250000000
H    -1.857000000    -4.886000000     4.503000000
C    -2.867000000    -3.441000000     3.251000000
O    -3.580000000    -4.535000000     2.709000000
C    -4.486000000    -4.431000000     1.646000000
C    -5.835000000    -4.053000000     1.885000000
H    -6.054000000    -3.888000000     2.937000000
C    -6.752000000    -3.873000000     0.827000000
H    -7.796000000    -3.623000000     0.998000000
C    -6.300000000    -4.104000000    -0.488000000
H    -6.953000000    -4.112000000    -1.357000000
C    -5.024000000    -4.571000000    -0.688000000
C    -4.085000000    -4.661000000     0.348000000
H    -3.054000000    -4.980000000     0.222000000
O     1.367000000    -8.731000000    -0.121000000
H     1.498000000    -7.800000000    -0.299000000
H     0.914000000    -9.062000000    -0.897000000
O     3.428000000    -7.936000000     4.104000000
H     3.604000000    -7.396000000     3.333000000
H     2.905000000    -8.665000000     3.772000000
O    -1.188000000    -6.230000000    -0.505000000
H    -0.351000000    -5.776000000    -0.406000000
H    -1.103000000    -7.012000000     0.040000000
O     1.096000000    -1.575000000     2.432000000
H     0.214000000    -1.796000000     2.134000000
H     1.625000000    -1.569000000     1.634000000
O    -0.805000000    -6.829000000     2.289000000
H    -0.231000000    -6.137000000     2.616000000
H    -1.689000000    -6.527000000     2.501000000
O     3.839000000    -8.167000000    -3.466000000
H     3.872000000    -8.582000000    -2.604000000
H     3.018000000    -7.675000000    -3.464000000
O     0.658000000    -5.722000000     4.994000000
H     1.550000000    -5.385000000     5.074000000
H     0.391000000    -5.486000000     4.106000000
O    -3.187000000    -7.720000000    -2.273000000
H    -2.517000000    -7.061000000    -2.088000000
H    -3.671000000    -7.805000000    -1.451000000
O     7.036000000    -4.724000000    -3.185000000
H     7.500000000    -5.560000000    -3.130000000
H     7.092000000    -4.479000000    -4.108000000
O     3.877000000    -6.517000000     1.878000000
H     4.151000000    -5.646000000     2.163000000
H     4.387000000    -6.682000000     1.085000000
O     4.415000000    -4.900000000    -2.676000000
H     5.366000000    -4.790000000    -2.679000000
H     4.138000000    -4.564000000    -1.823000000
O     4.214000000    -3.651000000     2.126000000
H     5.129000000    -3.850000000     2.322000000
H     4.160000000    -3.684000000     1.171000000
O    -0.841000000    -6.256000000    -3.322000000
H    -0.876000000    -5.907000000    -2.431000000
H     0.094000000    -6.311000000    -3.520000000
O     6.168000000    -7.430000000    -0.812000000
H     5.754000000    -6.858000000    -1.458000000
H     6.734000000    -6.848000000    -0.305000000
O     0.724000000    -4.507000000     2.583000000
H     1.258000000    -3.723000000     2.713000000
H     0.761000000    -4.669000000     1.641000000
O     1.966000000    -6.236000000    -2.764000000
H     1.743000000    -6.037000000    -1.855000000
H     2.626000000    -5.583000000    -2.998000000
O     3.045000000    -5.984000000    -6.432000000
H     3.026000000    -5.483000000    -7.248000000
H     3.461000000    -5.398000000    -5.800000000
O     3.612000000    -4.393000000     4.964000000
H     4.434000000    -4.207000000     5.418000000
H     3.844000000    -4.379000000     4.035000000
O     7.617000000    -4.969000000    -0.151000000
H     7.747000000    -4.737000000    -1.071000000
H     8.303000000    -4.492000000     0.316000000
