201
-1243.10477
C     5.078000000     0.732000000    -1.647000000
H     5.338000000     1.539000000    -0.967000000
C     3.985000000     0.743000000    -2.484000000
C     3.840000000    -0.303000000    -3.335000000
H     3.061000000    -0.333000000    -4.093000000
C     2.886000000     1.747000000    -2.476000000
O     3.347000000     3.018000000    -1.914000000
H     2.084000000     1.327000000    -1.853000000
O     2.323000000     1.985000000    -3.793000000
C     0.981000000     2.217000000    -3.933000000
C     0.213000000     1.158000000    -4.437000000
H     0.599000000     0.142000000    -4.479000000
C    -1.177000000     1.338000000    -4.553000000
O    -1.840000000     0.158000000    -4.886000000
C    -1.812000000     2.427000000    -3.940000000
C    -3.296000000     2.440000000    -3.778000000
H    -3.813000000     3.399000000    -3.853000000
C    -3.680000000     1.738000000    -2.511000000
C    -4.111000000     2.538000000    -1.406000000
H    -4.115000000     3.625000000    -1.440000000
H    -3.737000000     1.854000000    -4.588000000
C    -1.018000000     3.508000000    -3.533000000
H    -1.497000000     4.354000000    -3.048000000
C     0.332000000     3.389000000    -3.499000000
C     1.185000000     4.549000000    -3.007000000
H     0.714000000     5.452000000    -3.402000000
H     2.181000000     4.590000000    -3.452000000
C     1.459000000     4.417000000    -1.475000000
C     0.596000000     4.924000000    -0.498000000
H    -0.227000000     5.534000000    -0.861000000
C     2.544000000     3.701000000    -1.045000000
C     2.760000000     3.471000000     0.324000000
H     3.545000000     2.820000000     0.699000000
C     1.888000000     4.008000000     1.235000000
O     2.133000000     3.719000000     2.557000000
C     1.356000000     2.674000000     3.087000000
C     2.106000000     1.591000000     3.874000000
C     1.589000000     1.038000000     5.032000000
H     0.600000000     1.221000000     5.445000000
C     3.200000000     0.982000000     3.290000000
H     3.465000000     1.342000000     2.299000000
O     0.333000000     3.153000000     3.901000000
H     0.816000000     2.119000000     2.306000000
C     0.750000000     4.677000000     0.827000000
C    -0.209000000     5.220000000     1.832000000
H    -0.735000000     6.104000000     1.466000000
H     0.374000000     5.592000000     2.677000000
C    -1.168000000     4.166000000     2.256000000
C    -2.367000000     4.080000000     1.538000000
H    -2.626000000     4.907000000     0.882000000
C    -0.926000000     3.288000000     3.273000000
C    -1.849000000     2.283000000     3.501000000
H    -1.505000000     1.405000000     4.043000000
C    -3.025000000     2.131000000     2.763000000
O    -3.704000000     0.948000000     2.937000000
C    -3.484000000    -0.126000000     1.954000000
C    -3.447000000    -1.446000000     2.713000000
C    -3.176000000    -1.467000000     4.089000000
H    -3.243000000    -0.545000000     4.662000000
C    -3.506000000    -2.656000000     1.925000000
H    -3.628000000    -2.628000000     0.845000000
O    -4.654000000    -0.054000000     1.107000000
H    -2.555000000     0.098000000     1.410000000
C    -3.329000000     3.100000000     1.806000000
C    -4.630000000     2.950000000     1.097000000
H    -5.097000000     3.923000000     0.925000000
H    -5.246000000     2.426000000     1.830000000
C    -4.501000000     2.051000000    -0.194000000
C    -4.614000000     0.678000000    -0.076000000
C    -4.382000000    -0.119000000    -1.185000000
H    -4.495000000    -1.197000000    -1.101000000
C    -3.953000000     0.372000000    -2.398000000
O    -3.679000000    -0.490000000    -3.401000000
C    -2.219000000    -0.737000000    -3.778000000
H    -1.601000000    -0.299000000    -2.980000000
C    -1.907000000    -2.207000000    -4.031000000
C    -0.842000000    -2.569000000    -4.873000000
H    -0.242000000    -1.811000000    -5.370000000
C    -2.581000000    -3.198000000    -3.327000000
H    -3.431000000    -2.911000000    -2.712000000
C    -2.246000000    -4.511000000    -3.379000000
O    -3.004000000    -5.521000000    -2.808000000
C    -1.139000000    -4.853000000    -4.226000000
H    -0.913000000    -5.880000000    -4.499000000
C    -0.417000000    -3.867000000    -4.871000000
O     0.555000000    -4.345000000    -5.748000000
C     1.699000000    -3.701000000    -6.020000000
C     2.590000000    -3.430000000    -4.986000000
H     2.482000000    -3.784000000    -3.964000000
C     1.834000000    -3.026000000    -7.324000000
H     1.202000000    -3.268000000    -8.174000000
C     2.894000000    -2.145000000    -7.435000000
H     3.129000000    -1.572000000    -8.329000000
C     3.832000000    -1.937000000    -6.358000000
H     4.604000000    -1.201000000    -6.569000000
C     3.720000000    -2.608000000    -5.195000000
O     4.631000000    -2.486000000    -4.164000000
C     4.759000000    -1.403000000    -3.317000000
C     5.855000000    -1.466000000    -2.427000000
H     6.510000000    -2.323000000    -2.560000000
C     5.967000000    -0.323000000    -1.664000000
O     7.024000000    -0.261000000    -0.809000000
C     6.989000000     0.309000000     0.437000000
C     6.210000000    -0.406000000     1.357000000
H     5.727000000    -1.324000000     1.032000000
C     7.397000000     1.564000000     0.762000000
H     7.990000000     2.160000000     0.074000000
C     6.991000000     2.247000000     1.926000000
H     7.426000000     3.223000000     2.124000000
C     6.230000000     1.521000000     2.849000000
H     5.953000000     1.997000000     3.786000000
C     5.820000000     0.162000000     2.604000000
O     4.994000000    -0.622000000     3.430000000
C     3.905000000     0.017000000     3.993000000
C     3.347000000    -0.535000000     5.168000000
H     3.691000000    -1.461000000     5.621000000
C     2.198000000     0.002000000     5.636000000
O     1.698000000    -0.552000000     6.821000000
C     0.378000000    -0.703000000     7.195000000
C    -0.532000000    -1.408000000     6.350000000
H    -0.142000000    -1.744000000     5.392000000
C    -0.097000000    -0.219000000     8.385000000
H     0.556000000     0.296000000     9.085000000
C    -1.388000000    -0.462000000     8.808000000
H    -1.697000000    -0.145000000     9.801000000
C    -2.200000000    -1.286000000     7.984000000
H    -3.178000000    -1.611000000     8.329000000
C    -1.837000000    -1.714000000     6.731000000
O    -2.632000000    -2.628000000     6.083000000
C    -2.999000000    -2.666000000     4.711000000
C    -3.008000000    -3.945000000     4.075000000
H    -2.934000000    -4.911000000     4.567000000
C    -3.265000000    -3.869000000     2.667000000
O    -3.437000000    -5.061000000     1.986000000
C    -3.982000000    -5.161000000     0.689000000
C    -5.367000000    -5.341000000     0.588000000
H    -6.004000000    -5.446000000     1.462000000
C    -5.990000000    -5.563000000    -0.638000000
H    -7.005000000    -5.946000000    -0.713000000
C    -5.208000000    -5.438000000    -1.771000000
H    -5.773000000    -5.659000000    -2.673000000
C    -3.846000000    -5.242000000    -1.718000000
C    -3.212000000    -5.142000000    -0.486000000
H    -2.154000000    -5.389000000    -0.441000000
O     3.772000000    -7.101000000     0.173000000
H     4.392000000    -6.862000000     0.862000000
H     3.544000000    -6.271000000    -0.244000000
O     8.342000000    -3.091000000     0.094000000
H     7.562000000    -2.907000000     0.617000000
H     8.244000000    -4.006000000    -0.169000000
O     2.668000000    -6.782000000     4.964000000
H     2.000000000    -6.232000000     5.374000000
H     2.460000000    -6.754000000     4.030000000
O     0.636000000    -5.701000000     0.588000000
H     0.449000000    -6.502000000     0.099000000
H     1.253000000    -5.222000000     0.036000000
O     4.561000000    -4.102000000     3.708000000
H     3.616000000    -4.063000000     3.564000000
H     4.936000000    -3.609000000     2.979000000
O     2.241000000    -6.438000000    -3.552000000
H     1.948000000    -5.744000000    -2.962000000
H     3.196000000    -6.371000000    -3.545000000
O     5.769000000    -7.783000000    -1.645000000
H     5.091000000    -7.722000000    -0.971000000
H     5.461000000    -7.208000000    -2.346000000
O     0.423000000    -7.415000000    -5.843000000
H     0.703000000    -7.382000000    -4.928000000
H     0.697000000    -6.573000000    -6.207000000
O     5.165000000    -5.292000000    -2.940000000
H     4.713000000    -4.772000000    -3.604000000
H     4.979000000    -4.842000000    -2.116000000
O     8.101000000    -7.057000000     2.675000000
H     7.325000000    -6.891000000     2.141000000
H     8.252000000    -7.999000000     2.593000000
O     7.539000000    -6.843000000    -3.859000000
H     6.815000000    -6.259000000    -3.636000000
H     8.088000000    -6.856000000    -3.075000000
O     1.141000000    -1.231000000     2.845000000
H     1.426000000    -0.351000000     3.089000000
H     0.901000000    -1.158000000     1.922000000
O    -0.423000000    -7.645000000    -1.024000000
H    -0.860000000    -7.976000000    -0.239000000
H    -0.470000000    -8.369000000    -1.648000000
O     4.994000000    -6.751000000     2.446000000
H     4.694000000    -6.188000000     3.160000000
H     5.070000000    -7.619000000     2.842000000
O     2.673000000   -10.007000000     0.461000000
H     2.816000000    -9.065000000     0.368000000
H     1.850000000   -10.171000000     0.001000000
O     1.540000000    -7.525000000     2.614000000
H     2.064000000    -7.396000000     1.824000000
H     0.633000000    -7.469000000     2.312000000
O     1.895000000    -4.252000000     3.410000000
H     1.403000000    -4.775000000     2.778000000
H     1.484000000    -3.388000000     3.378000000
O     7.342000000    -6.272000000    -0.090000000
H     8.220000000    -6.368000000    -0.459000000
H     6.781000000    -6.788000000    -0.668000000
O     5.955000000    -3.686000000     1.058000000
H     6.335000000    -4.551000000     0.909000000
H     5.401000000    -3.533000000     0.292000000
