201
-1254.61081
C     4.856000000     0.748000000    -2.212000000
H     4.992000000     1.650000000    -1.621000000
C     3.734000000     0.629000000    -3.027000000
C     3.510000000    -0.612000000    -3.707000000
H     2.566000000    -0.721000000    -4.234000000
C     2.564000000     1.659000000    -2.976000000
O     2.970000000     2.904000000    -2.465000000
H     1.829000000     1.205000000    -2.296000000
O     1.881000000     1.786000000    -4.289000000
C     0.505000000     1.954000000    -4.256000000
C    -0.149000000     0.802000000    -4.618000000
H     0.448000000     0.047000000    -5.124000000
C    -1.535000000     0.702000000    -4.448000000
O    -2.145000000    -0.502000000    -4.567000000
C    -2.271000000     1.839000000    -4.008000000
C    -3.810000000     1.740000000    -3.871000000
H    -4.221000000     2.724000000    -4.105000000
C    -4.201000000     1.393000000    -2.461000000
C    -4.309000000     2.408000000    -1.460000000
H    -4.167000000     3.455000000    -1.718000000
H    -4.105000000     0.921000000    -4.530000000
C    -1.575000000     3.003000000    -3.644000000
H    -2.149000000     3.882000000    -3.362000000
C    -0.160000000     3.084000000    -3.767000000
C     0.656000000     4.331000000    -3.359000000
H     0.154000000     5.299000000    -3.415000000
H     1.562000000     4.452000000    -3.956000000
C     1.051000000     4.199000000    -1.882000000
C     0.276000000     4.832000000    -0.968000000
H    -0.654000000     5.315000000    -1.259000000
C     2.218000000     3.497000000    -1.504000000
C     2.655000000     3.570000000    -0.182000000
H     3.633000000     3.195000000     0.110000000
C     1.763000000     4.151000000     0.712000000
O     2.080000000     3.936000000     2.077000000
C     1.231000000     2.951000000     2.781000000
C     2.086000000     1.869000000     3.557000000
C     1.717000000     1.431000000     4.829000000
H     0.709000000     1.611000000     5.194000000
C     3.412000000     1.544000000     3.049000000
H     3.702000000     2.031000000     2.121000000
O     0.204000000     3.648000000     3.523000000
H     0.683000000     2.367000000     2.027000000
C     0.583000000     4.805000000     0.390000000
C    -0.362000000     5.495000000     1.315000000
H    -0.859000000     6.277000000     0.736000000
H     0.160000000     6.060000000     2.090000000
C    -1.345000000     4.569000000     1.984000000
C    -2.656000000     4.405000000     1.417000000
H    -2.952000000     5.099000000     0.636000000
C    -1.058000000     3.740000000     3.038000000
C    -1.926000000     2.796000000     3.515000000
H    -1.676000000     2.147000000     4.350000000
C    -3.128000000     2.554000000     2.842000000
O    -3.791000000     1.386000000     3.155000000
C    -3.444000000     0.330000000     2.286000000
C    -3.086000000    -0.986000000     3.041000000
C    -2.682000000    -0.994000000     4.385000000
H    -2.753000000    -0.056000000     4.930000000
C    -2.995000000    -2.209000000     2.320000000
H    -3.231000000    -2.267000000     1.261000000
O    -4.606000000     0.112000000     1.447000000
H    -2.547000000     0.573000000     1.699000000
C    -3.470000000     3.341000000     1.761000000
C    -4.675000000     2.995000000     0.957000000
H    -5.065000000     3.899000000     0.484000000
H    -5.534000000     2.721000000     1.573000000
C    -4.427000000     1.976000000    -0.106000000
C    -4.593000000     0.600000000     0.137000000
C    -4.520000000    -0.323000000    -0.823000000
H    -4.460000000    -1.358000000    -0.497000000
C    -4.272000000     0.031000000    -2.133000000
O    -3.932000000    -1.024000000    -2.980000000
C    -2.567000000    -1.216000000    -3.337000000
H    -1.916000000    -0.879000000    -2.516000000
C    -2.257000000    -2.743000000    -3.565000000
C    -1.236000000    -3.147000000    -4.394000000
H    -0.771000000    -2.357000000    -4.977000000
C    -2.921000000    -3.674000000    -2.792000000
H    -3.693000000    -3.269000000    -2.143000000
C    -2.657000000    -5.044000000    -2.950000000
O    -3.305000000    -6.072000000    -2.242000000
C    -1.574000000    -5.397000000    -3.721000000
H    -1.195000000    -6.411000000    -3.826000000
C    -0.912000000    -4.501000000    -4.520000000
O     0.123000000    -4.915000000    -5.354000000
C     1.253000000    -4.200000000    -5.699000000
C     2.080000000    -3.728000000    -4.691000000
H     1.802000000    -3.961000000    -3.666000000
C     1.560000000    -4.067000000    -7.025000000
H     0.963000000    -4.525000000    -7.810000000
C     2.660000000    -3.378000000    -7.319000000
H     2.902000000    -3.292000000    -8.375000000
C     3.573000000    -2.953000000    -6.432000000
H     4.579000000    -2.612000000    -6.661000000
C     3.345000000    -3.172000000    -5.109000000
O     4.341000000    -2.866000000    -4.209000000
C     4.451000000    -1.641000000    -3.598000000
C     5.573000000    -1.498000000    -2.787000000
H     6.377000000    -2.229000000    -2.832000000
C     5.795000000    -0.293000000    -2.108000000
O     6.878000000    -0.263000000    -1.263000000
C     6.901000000     0.404000000    -0.043000000
C     6.136000000    -0.084000000     1.015000000
H     5.691000000    -1.076000000     1.010000000
C     7.468000000     1.647000000     0.034000000
H     7.885000000     2.079000000    -0.873000000
C     7.384000000     2.378000000     1.209000000
H     7.880000000     3.323000000     1.412000000
C     6.479000000     1.921000000     2.212000000
H     6.387000000     2.570000000     3.079000000
C     5.920000000     0.645000000     2.177000000
O     5.366000000     0.161000000     3.281000000
C     4.199000000     0.634000000     3.746000000
C     3.791000000     0.207000000     4.950000000
H     4.518000000    -0.336000000     5.549000000
C     2.614000000     0.595000000     5.572000000
O     2.374000000     0.081000000     6.843000000
C     1.095000000    -0.154000000     7.243000000
C     0.300000000    -1.042000000     6.610000000
H     0.613000000    -1.695000000     5.798000000
C     0.640000000     0.581000000     8.363000000
H     1.223000000     1.396000000     8.786000000
C    -0.632000000     0.371000000     8.849000000
H    -0.970000000     0.927000000     9.720000000
C    -1.515000000    -0.527000000     8.172000000
H    -2.533000000    -0.644000000     8.533000000
C    -1.013000000    -1.169000000     7.022000000
O    -1.841000000    -2.126000000     6.420000000
C    -2.250000000    -2.162000000     5.034000000
C    -2.128000000    -3.299000000     4.303000000
H    -1.729000000    -4.167000000     4.822000000
C    -2.589000000    -3.365000000     2.970000000
O    -2.398000000    -4.564000000     2.342000000
C    -3.233000000    -5.102000000     1.328000000
C    -4.580000000    -5.452000000     1.640000000
H    -4.944000000    -5.221000000     2.638000000
C    -5.437000000    -5.951000000     0.636000000
H    -6.467000000    -6.131000000     0.933000000
C    -4.925000000    -6.254000000    -0.652000000
H    -5.495000000    -6.793000000    -1.405000000
C    -3.607000000    -5.871000000    -0.978000000
C    -2.839000000    -5.236000000    -0.024000000
H    -1.856000000    -4.862000000    -0.298000000
O     4.764000000    -7.054000000     0.357000000
H     5.063000000    -6.841000000     1.241000000
H     4.456000000    -6.220000000     0.001000000
O     8.409000000    -2.439000000     1.805000000
H     7.496000000    -2.193000000     1.659000000
H     8.361000000    -3.235000000     2.334000000
O     2.203000000    -6.035000000     4.557000000
H     1.602000000    -6.755000000     4.367000000
H     2.011000000    -5.379000000     3.888000000
O     0.824000000    -6.898000000     0.831000000
H     0.427000000    -7.524000000     0.226000000
H     1.261000000    -6.262000000     0.266000000
O     4.572000000    -3.641000000     3.320000000
H     3.736000000    -3.985000000     3.006000000
H     5.032000000    -3.367000000     2.527000000
O     0.345000000    -8.774000000    -3.758000000
H     1.091000000    -8.176000000    -3.815000000
H     0.283000000    -8.990000000    -2.827000000
O     2.180000000    -6.752000000    -3.277000000
H     2.955000000    -7.180000000    -2.914000000
H     1.958000000    -6.076000000    -2.637000000
O     4.725000000    -7.434000000    -2.254000000
H     4.562000000    -7.627000000    -1.331000000
H     5.071000000    -6.542000000    -2.255000000
O     2.472000000    -7.342000000    -5.821000000
H     2.496000000    -7.087000000    -4.898000000
H     1.885000000    -6.706000000    -6.230000000
O     5.405000000    -4.794000000    -2.607000000
H     5.287000000    -4.159000000    -3.314000000
H     4.700000000    -4.598000000    -1.990000000
O     8.188000000    -6.529000000     1.807000000
H     8.268000000    -6.890000000     0.924000000
H     7.425000000    -5.953000000     1.763000000
O     2.789000000    -8.838000000     1.336000000
H     3.702000000    -8.595000000     1.184000000
H     2.296000000    -8.036000000     1.162000000
O     0.061000000    -2.050000000     2.652000000
H    -0.878000000    -2.236000000     2.682000000
H     0.165000000    -1.466000000     1.900000000
O    -0.165000000    -9.161000000    -0.736000000
H     0.389000000    -9.743000000    -0.214000000
H    -1.037000000    -9.553000000    -0.687000000
O     5.262000000    -6.351000000     2.883000000
H     4.990000000    -5.802000000     3.618000000
H     5.540000000    -7.173000000     3.288000000
O     0.343000000    -7.936000000     3.323000000
H     0.587000000    -7.489000000     2.513000000
H     0.225000000    -8.850000000     3.066000000
O     2.053000000    -4.273000000     2.408000000
H     1.765000000    -4.316000000     1.496000000
H     1.369000000    -3.770000000     2.852000000
O     7.626000000    -5.359000000    -1.027000000
H     6.909000000    -5.026000000    -1.567000000
H     8.280000000    -5.661000000    -1.658000000
O     6.013000000    -3.921000000     0.687000000
H     6.707000000    -4.426000000     0.265000000
H     5.218000000    -4.161000000     0.211000000
