201
-1243.93999
C    -4.584000000    -0.942000000    -2.340000000
H    -4.350000000    -0.010000000    -2.849000000
C    -4.551000000    -0.932000000    -0.956000000
C    -4.620000000    -2.145000000    -0.252000000
H    -4.600000000    -2.099000000     0.834000000
C    -4.247000000     0.359000000    -0.228000000
O    -4.679000000     1.558000000    -0.981000000
H    -3.160000000     0.383000000    -0.066000000
O    -4.800000000     0.294000000     1.082000000
C    -4.040000000     0.841000000     2.147000000
C    -3.459000000    -0.186000000     2.884000000
H    -3.839000000    -1.199000000     2.776000000
C    -2.468000000     0.185000000     3.789000000
O    -1.853000000    -0.774000000     4.497000000
C    -2.097000000     1.549000000     3.943000000
C    -1.063000000     1.900000000     4.970000000
H    -1.227000000     2.896000000     5.387000000
C     0.270000000     1.825000000     4.330000000
C     0.845000000     2.975000000     3.721000000
H     0.339000000     3.935000000     3.673000000
H    -1.144000000     1.225000000     5.825000000
C    -2.652000000     2.525000000     3.119000000
H    -2.398000000     3.581000000     3.121000000
C    -3.690000000     2.173000000     2.238000000
C    -4.360000000     3.265000000     1.382000000
H    -4.441000000     4.187000000     1.961000000
H    -5.413000000     3.095000000     1.149000000
C    -3.609000000     3.417000000     0.099000000
C    -2.595000000     4.363000000     0.044000000
H    -2.315000000     4.909000000     0.941000000
C    -3.798000000     2.562000000    -1.029000000
C    -3.033000000     2.830000000    -2.161000000
H    -3.253000000     2.211000000    -3.027000000
C    -1.945000000     3.713000000    -2.171000000
O    -1.089000000     3.618000000    -3.238000000
C     0.160000000     2.971000000    -3.108000000
C     0.524000000     2.152000000    -4.267000000
C     1.810000000     2.115000000    -4.748000000
H     2.618000000     2.657000000    -4.264000000
C    -0.434000000     1.287000000    -4.881000000
H    -1.438000000     1.218000000    -4.473000000
O     1.135000000     3.979000000    -2.855000000
H     0.159000000     2.372000000    -2.185000000
C    -1.734000000     4.524000000    -1.053000000
C    -0.567000000     5.522000000    -1.056000000
H    -0.804000000     6.382000000    -0.425000000
H    -0.407000000     5.901000000    -2.068000000
C     0.791000000     4.829000000    -0.708000000
C     1.215000000     4.938000000     0.632000000
H     0.565000000     5.503000000     1.295000000
C     1.629000000     4.208000000    -1.610000000
C     2.887000000     3.708000000    -1.278000000
H     3.462000000     3.173000000    -2.028000000
C     3.230000000     3.637000000     0.103000000
O     4.264000000     2.819000000     0.536000000
C     3.796000000     1.503000000     1.013000000
C     4.545000000     0.316000000     0.493000000
C     5.044000000     0.400000000    -0.762000000
H     5.092000000     1.348000000    -1.291000000
C     4.661000000    -0.866000000     1.272000000
H     4.346000000    -0.888000000     2.312000000
O     3.963000000     1.514000000     2.444000000
H     2.726000000     1.386000000     0.788000000
C     2.441000000     4.310000000     1.006000000
C     2.678000000     4.194000000     2.551000000
H     2.317000000     5.107000000     3.030000000
H     3.759000000     4.154000000     2.699000000
C     2.080000000     2.887000000     3.153000000
C     2.844000000     1.758000000     3.211000000
C     2.306000000     0.575000000     3.811000000
H     2.761000000    -0.411000000     3.825000000
C     1.010000000     0.648000000     4.398000000
O     0.451000000    -0.501000000     4.880000000
C    -0.492000000    -1.257000000     4.121000000
H    -0.431000000    -0.944000000     3.068000000
C    -0.300000000    -2.765000000     4.246000000
C    -1.373000000    -3.611000000     3.944000000
H    -2.362000000    -3.161000000     3.957000000
C     0.932000000    -3.335000000     4.509000000
H     1.723000000    -2.700000000     4.899000000
C     1.063000000    -4.687000000     4.551000000
O     2.347000000    -5.126000000     4.889000000
C     0.033000000    -5.487000000     4.198000000
H     0.068000000    -6.573000000     4.217000000
C    -1.220000000    -4.978000000     3.944000000
O    -2.297000000    -5.829000000     3.696000000
C    -3.425000000    -5.392000000     3.017000000
C    -3.386000000    -5.025000000     1.712000000
H    -2.403000000    -4.948000000     1.253000000
C    -4.663000000    -5.767000000     3.526000000
H    -4.671000000    -6.309000000     4.468000000
C    -5.898000000    -5.530000000     2.871000000
H    -6.883000000    -5.763000000     3.267000000
C    -5.838000000    -5.065000000     1.592000000
H    -6.761000000    -4.785000000     1.092000000
C    -4.587000000    -4.833000000     0.983000000
O    -4.399000000    -4.616000000    -0.352000000
C    -4.591000000    -3.372000000    -0.961000000
C    -4.682000000    -3.337000000    -2.329000000
H    -4.687000000    -4.333000000    -2.764000000
C    -4.633000000    -2.155000000    -3.060000000
O    -4.701000000    -2.394000000    -4.406000000
C    -4.280000000    -1.333000000    -5.290000000
C    -2.917000000    -1.193000000    -5.538000000
H    -2.266000000    -1.847000000    -4.963000000
C    -5.163000000    -0.651000000    -6.152000000
H    -6.219000000    -0.908000000    -6.128000000
C    -4.674000000     0.346000000    -6.930000000
H    -5.434000000     0.865000000    -7.510000000
C    -3.310000000     0.548000000    -7.063000000
H    -2.902000000     1.301000000    -7.733000000
C    -2.387000000    -0.172000000    -6.365000000
O    -1.054000000    -0.124000000    -6.725000000
C    -0.153000000     0.641000000    -6.059000000
C     1.208000000     0.549000000    -6.472000000
H     1.507000000    -0.092000000    -7.298000000
C     2.108000000     1.365000000    -5.850000000
O     3.449000000     1.273000000    -6.279000000
C     4.541000000     1.163000000    -5.393000000
C     4.647000000     0.209000000    -4.362000000
H     4.015000000    -0.675000000    -4.342000000
C     5.452000000     2.240000000    -5.463000000
H     5.284000000     3.024000000    -6.196000000
C     6.528000000     2.338000000    -4.573000000
H     7.241000000     3.158000000    -4.598000000
C     6.691000000     1.339000000    -3.604000000
H     7.481000000     1.286000000    -2.858000000
C     5.808000000     0.294000000    -3.601000000
O     5.986000000    -0.782000000    -2.740000000
C     5.562000000    -0.718000000    -1.384000000
C     5.412000000    -1.953000000    -0.683000000
H     5.725000000    -2.879000000    -1.159000000
C     5.050000000    -1.974000000     0.656000000
O     4.888000000    -3.153000000     1.369000000
C     4.786000000    -3.444000000     2.734000000
C     5.853000000    -3.275000000     3.603000000
H     6.648000000    -2.662000000     3.187000000
C     5.752000000    -3.757000000     4.947000000
H     6.574000000    -3.617000000     5.644000000
C     4.575000000    -4.326000000     5.399000000
H     4.551000000    -4.752000000     6.398000000
C     3.519000000    -4.489000000     4.474000000
C     3.642000000    -4.057000000     3.185000000
H     2.874000000    -4.436000000     2.516000000
O    -1.687000000    -8.151000000    -1.421000000
H    -0.966000000    -7.547000000    -1.598000000
H    -2.109000000    -7.798000000    -0.637000000
O     0.212000000    -7.981000000    -6.071000000
H    -0.688000000    -8.198000000    -5.828000000
H     0.654000000    -7.822000000    -5.237000000
O     0.950000000    -7.442000000    -3.570000000
H     1.456000000    -7.908000000    -2.905000000
H     0.440000000    -6.800000000    -3.077000000
O     2.170000000   -10.290000000    -2.408000000
H     2.810000000   -10.679000000    -1.812000000
H     1.400000000   -10.853000000    -2.332000000
O     3.026000000    -7.893000000     0.584000000
H     2.563000000    -8.730000000     0.549000000
H     2.343000000    -7.249000000     0.772000000
O     5.009000000    -7.596000000     3.044000000
H     4.875000000    -8.410000000     2.558000000
H     4.273000000    -7.040000000     2.789000000
O     3.259000000    -5.613000000    -1.247000000
H     2.510000000    -6.078000000    -0.874000000
H     2.869000000    -4.939000000    -1.803000000
O     2.304000000    -3.430000000    -2.525000000
H     1.955000000    -2.932000000    -1.786000000
H     3.005000000    -2.880000000    -2.875000000
O     6.438000000    -5.062000000     0.121000000
H     6.462000000    -4.920000000    -0.825000000
H     5.550000000    -4.814000000     0.378000000
O    -3.335000000    -8.673000000     1.419000000
H    -3.675000000    -8.573000000     2.309000000
H    -2.451000000    -8.309000000     1.459000000
O    -3.474000000    -7.230000000    -3.463000000
H    -3.242000000    -7.785000000    -4.207000000
H    -3.109000000    -7.682000000    -2.703000000
O    -0.034000000    -2.841000000    -4.104000000
H     0.749000000    -3.129000000    -3.633000000
H    -0.664000000    -3.550000000    -3.976000000
O     0.706000000    -9.633000000     0.625000000
H    -0.112000000    -9.195000000     0.859000000
H     0.509000000   -10.087000000    -0.194000000
O    -0.540000000   -10.740000000    -1.345000000
H    -0.991000000    -9.903000000    -1.459000000
H    -1.120000000   -11.382000000    -1.755000000
O    -0.910000000    -7.273000000     1.367000000
H    -1.018000000    -6.626000000     2.064000000
H    -0.034000000    -7.107000000     1.019000000
O     3.919000000    -6.741000000    -3.650000000
H     3.677000000    -6.538000000    -2.747000000
H     3.090000000    -6.735000000    -4.128000000
O     5.486000000    -7.915000000    -0.758000000
H     4.833000000    -7.297000000    -0.430000000
H     5.447000000    -8.651000000    -0.148000000
O    -1.674000000    -5.234000000    -3.867000000
H    -2.297000000    -5.958000000    -3.936000000
H    -1.230000000    -5.379000000    -3.032000000
O    -1.227000000    -4.397000000    -6.595000000
H    -1.781000000    -4.867000000    -7.219000000
H    -1.635000000    -4.558000000    -5.744000000
