201
-1235.09897
C     4.370000000    -1.258000000    -1.525000000
H     4.363000000    -0.565000000    -0.688000000
C     3.885000000    -0.811000000    -2.781000000
C     3.624000000    -1.771000000    -3.752000000
H     3.120000000    -1.429000000    -4.652000000
C     3.216000000     0.564000000    -2.958000000
O     4.143000000     1.625000000    -2.624000000
H     2.336000000     0.704000000    -2.313000000
O     2.698000000     0.829000000    -4.352000000
C     1.478000000     1.375000000    -4.380000000
C     0.444000000     0.459000000    -4.722000000
H     0.667000000    -0.584000000    -4.932000000
C    -0.889000000     0.881000000    -4.682000000
O    -1.845000000    -0.104000000    -4.686000000
C    -1.217000000     2.217000000    -4.362000000
C    -2.640000000     2.706000000    -4.192000000
H    -2.613000000     3.747000000    -4.520000000
C    -3.025000000     2.457000000    -2.704000000
C    -2.969000000     3.495000000    -1.758000000
H    -2.654000000     4.494000000    -2.049000000
H    -3.328000000     2.194000000    -4.867000000
C    -0.165000000     3.079000000    -4.073000000
H    -0.376000000     4.110000000    -3.801000000
C     1.167000000     2.650000000    -4.000000000
C     2.293000000     3.629000000    -3.649000000
H     2.051000000     4.657000000    -3.926000000
H     3.175000000     3.424000000    -4.260000000
C     2.693000000     3.523000000    -2.173000000
C     2.122000000     4.357000000    -1.250000000
H     1.386000000     5.026000000    -1.689000000
C     3.625000000     2.597000000    -1.741000000
C     3.826000000     2.449000000    -0.376000000
H     4.611000000     1.783000000    -0.027000000
C     3.117000000     3.229000000     0.567000000
O     3.198000000     2.912000000     1.941000000
C     2.092000000     2.236000000     2.544000000
C     2.597000000     1.118000000     3.470000000
C     1.739000000     0.552000000     4.390000000
H     0.680000000     0.796000000     4.351000000
C     3.857000000     0.544000000     3.397000000
H     4.417000000     0.873000000     2.525000000
O     1.299000000     3.165000000     3.270000000
H     1.508000000     1.855000000     1.694000000
C     2.278000000     4.204000000     0.111000000
C     1.427000000     5.077000000     1.028000000
H     1.143000000     6.004000000     0.525000000
H     2.009000000     5.441000000     1.877000000
C     0.145000000     4.503000000     1.527000000
C    -1.000000000     4.749000000     0.836000000
H    -0.926000000     5.224000000    -0.138000000
C     0.162000000     3.722000000     2.680000000
C    -1.042000000     3.263000000     3.224000000
H    -1.056000000     2.686000000     4.145000000
C    -2.237000000     3.535000000     2.565000000
O    -3.400000000     2.854000000     2.874000000
C    -3.505000000     1.619000000     2.174000000
C    -3.870000000     0.490000000     3.177000000
C    -3.570000000     0.540000000     4.549000000
H    -3.120000000     1.422000000     4.998000000
C    -4.392000000    -0.654000000     2.658000000
H    -4.669000000    -0.728000000     1.609000000
O    -4.476000000     1.821000000     1.178000000
H    -2.539000000     1.373000000     1.708000000
C    -2.220000000     4.304000000     1.321000000
C    -3.489000000     4.411000000     0.554000000
H    -3.539000000     5.332000000    -0.031000000
H    -4.378000000     4.467000000     1.185000000
C    -3.505000000     3.278000000    -0.480000000
C    -4.002000000     2.045000000    -0.113000000
C    -4.000000000     0.984000000    -0.976000000
H    -4.413000000     0.017000000    -0.702000000
C    -3.614000000     1.235000000    -2.281000000
O    -3.691000000     0.071000000    -3.054000000
C    -2.380000000    -0.568000000    -3.378000000
H    -1.753000000    -0.256000000    -2.530000000
C    -2.374000000    -2.136000000    -3.231000000
C    -1.514000000    -2.958000000    -3.936000000
H    -0.739000000    -2.472000000    -4.523000000
C    -3.333000000    -2.748000000    -2.431000000
H    -3.950000000    -2.126000000    -1.788000000
C    -3.348000000    -4.151000000    -2.227000000
O    -4.234000000    -4.751000000    -1.376000000
C    -2.443000000    -4.900000000    -2.878000000
H    -2.318000000    -5.960000000    -2.671000000
C    -1.586000000    -4.337000000    -3.846000000
O    -0.571000000    -5.122000000    -4.291000000
C     0.458000000    -4.735000000    -5.034000000
C     1.735000000    -4.608000000    -4.491000000
H     1.915000000    -4.692000000    -3.423000000
C     0.146000000    -4.474000000    -6.328000000
H    -0.874000000    -4.532000000    -6.698000000
C     1.184000000    -4.050000000    -7.174000000
H     1.092000000    -3.819000000    -8.232000000
C     2.466000000    -3.856000000    -6.706000000
H     3.264000000    -3.535000000    -7.369000000
C     2.765000000    -4.154000000    -5.333000000
O     4.005000000    -3.969000000    -4.722000000
C     4.198000000    -3.046000000    -3.721000000
C     4.766000000    -3.466000000    -2.518000000
H     5.003000000    -4.512000000    -2.340000000
C     4.894000000    -2.533000000    -1.424000000
O     5.583000000    -2.980000000    -0.361000000
C     6.086000000    -2.080000000     0.572000000
C     5.505000000    -1.809000000     1.846000000
H     4.551000000    -2.249000000     2.125000000
C     7.358000000    -1.598000000     0.366000000
H     7.903000000    -1.862000000    -0.537000000
C     7.855000000    -0.646000000     1.257000000
H     8.837000000    -0.239000000     1.029000000
C     7.305000000    -0.401000000     2.472000000
H     7.826000000     0.254000000     3.165000000
C     6.107000000    -1.011000000     2.802000000
O     5.583000000    -1.063000000     4.042000000
C     4.371000000    -0.426000000     4.250000000
C     3.514000000    -0.795000000     5.309000000
H     3.862000000    -1.635000000     5.904000000
C     2.186000000    -0.355000000     5.342000000
O     1.271000000    -1.057000000     6.216000000
C     0.189000000    -0.448000000     6.887000000
C    -1.105000000    -0.851000000     6.504000000
H    -1.190000000    -1.557000000     5.681000000
C     0.304000000     0.481000000     7.857000000
H     1.291000000     0.852000000     8.122000000
C    -0.812000000     0.995000000     8.490000000
H    -0.646000000     1.702000000     9.298000000
C    -2.095000000     0.677000000     8.079000000
H    -2.972000000     1.177000000     8.480000000
C    -2.229000000    -0.246000000     7.076000000
O    -3.484000000    -0.560000000     6.659000000
C    -3.700000000    -0.615000000     5.287000000
C    -4.221000000    -1.731000000     4.753000000
H    -4.428000000    -2.620000000     5.343000000
C    -4.616000000    -1.776000000     3.425000000
O    -5.164000000    -2.950000000     2.901000000
C    -5.636000000    -3.124000000     1.621000000
C    -6.919000000    -2.828000000     1.134000000
H    -7.665000000    -2.383000000     1.787000000
C    -7.162000000    -2.921000000    -0.288000000
H    -8.148000000    -2.661000000    -0.667000000
C    -6.270000000    -3.568000000    -1.147000000
H    -6.593000000    -4.011000000    -2.086000000
C    -5.093000000    -3.967000000    -0.562000000
C    -4.723000000    -3.730000000     0.740000000
H    -3.695000000    -3.934000000     1.029000000
O    -2.988000000    -6.097000000     6.621000000
H    -2.511000000    -5.770000000     5.858000000
H    -2.667000000    -6.991000000     6.739000000
O    -0.178000000   -10.314000000     0.120000000
H     0.108000000    -9.602000000     0.692000000
H    -0.750000000   -10.849000000     0.671000000
O    -3.433000000    -6.188000000     2.666000000
H    -2.529000000    -5.925000000     2.494000000
H    -3.625000000    -5.830000000     3.532000000
O    -0.774000000    -8.083000000     6.380000000
H    -0.784000000    -8.189000000     5.429000000
H    -1.397000000    -8.736000000     6.700000000
O     1.250000000    -7.285000000    -1.205000000
H     2.178000000    -7.058000000    -1.141000000
H     0.802000000    -6.609000000    -0.697000000
O     0.490000000    -7.717000000     1.531000000
H    -0.065000000    -6.968000000     1.313000000
H     1.075000000    -7.808000000     0.779000000
O    -1.831000000    -7.933000000    -1.034000000
H    -0.975000000    -8.361000000    -1.024000000
H    -1.670000000    -7.066000000    -0.662000000
O     3.585000000    -7.012000000     2.518000000
H     3.663000000    -6.664000000     1.630000000
H     3.911000000    -6.309000000     3.080000000
O     0.477000000    -9.099000000    -3.189000000
H     1.186000000    -9.741000000    -3.209000000
H     0.775000000    -8.433000000    -2.570000000
O     3.604000000    -4.476000000     4.510000000
H     2.945000000    -4.003000000     4.001000000
H     4.441000000    -4.183000000     4.149000000
O    -1.337000000    -8.627000000     3.824000000
H    -2.092000000    -8.086000000     3.595000000
H    -0.690000000    -8.436000000     3.145000000
O    -1.660000000    -4.448000000     4.628000000
H    -0.872000000    -4.494000000     5.168000000
H    -1.333000000    -4.387000000     3.731000000
O     3.819000000    -6.053000000    -0.360000000
H     3.966000000    -5.188000000     0.021000000
H     4.698000000    -6.398000000    -0.518000000
O     0.602000000    -3.804000000     6.327000000
H     1.375000000    -4.282000000     6.625000000
H     0.839000000    -2.882000000     6.422000000
O    -1.875000000    -8.084000000    -4.166000000
H    -1.024000000    -8.466000000    -3.954000000
H    -2.256000000    -7.860000000    -3.316000000
O    -3.633000000    -8.190000000     1.008000000
H    -2.866000000    -8.152000000     0.437000000
H    -3.560000000    -7.411000000     1.560000000
O    -6.468000000    -6.903000000    -1.139000000
H    -5.877000000    -6.223000000    -0.816000000
H    -6.255000000    -6.984000000    -2.069000000
O     1.644000000    -3.487000000     2.747000000
H     1.393000000    -3.042000000     1.937000000
H     0.890000000    -4.036000000     2.962000000
O    -4.253000000    -8.878000000    -2.210000000
H    -4.579000000    -8.310000000    -2.908000000
H    -3.607000000    -8.344000000    -1.748000000
