201
-1258.19074
C     5.177000000    -1.324000000     0.031000000
H     5.453000000    -0.482000000     0.661000000
C     4.433000000    -1.229000000    -1.152000000
C     4.207000000    -2.321000000    -1.976000000
H     3.603000000    -2.144000000    -2.863000000
C     3.912000000     0.163000000    -1.617000000
O     4.724000000     1.207000000    -0.951000000
H     2.856000000     0.252000000    -1.323000000
O     4.000000000     0.378000000    -3.020000000
C     2.913000000     1.093000000    -3.619000000
C     1.877000000     0.246000000    -4.092000000
H     2.085000000    -0.808000000    -4.257000000
C     0.621000000     0.820000000    -4.359000000
O    -0.373000000    -0.015000000    -4.796000000
C     0.385000000     2.175000000    -4.080000000
C    -0.911000000     2.715000000    -4.590000000
H    -0.869000000     3.765000000    -4.887000000
C    -1.994000000     2.676000000    -3.480000000
C    -2.129000000     3.713000000    -2.547000000
H    -1.519000000     4.601000000    -2.690000000
H    -1.283000000     2.186000000    -5.470000000
C     1.419000000     3.007000000    -3.563000000
H     1.277000000     4.048000000    -3.283000000
C     2.638000000     2.455000000    -3.320000000
C     3.692000000     3.356000000    -2.568000000
H     3.532000000     4.386000000    -2.893000000
H     4.707000000     3.038000000    -2.814000000
C     3.497000000     3.246000000    -1.009000000
C     2.738000000     4.211000000    -0.360000000
H     2.458000000     5.136000000    -0.858000000
C     4.048000000     2.228000000    -0.303000000
C     3.856000000     2.140000000     1.057000000
H     4.272000000     1.232000000     1.486000000
C     2.994000000     3.014000000     1.644000000
O     2.616000000     2.727000000     2.915000000
C     1.348000000     2.075000000     3.085000000
C     1.379000000     1.021000000     4.110000000
C     0.272000000     0.668000000     4.919000000
H    -0.584000000     1.338000000     4.917000000
C     2.472000000     0.153000000     4.147000000
H     3.304000000     0.399000000     3.491000000
O     0.380000000     3.097000000     3.570000000
H     0.947000000     1.637000000     2.159000000
C     2.373000000     4.034000000     0.936000000
C     1.454000000     4.952000000     1.721000000
H     1.591000000     5.990000000     1.410000000
H     1.848000000     4.942000000     2.739000000
C    -0.020000000     4.540000000     1.759000000
C    -0.933000000     5.025000000     0.833000000
H    -0.544000000     5.826000000     0.209000000
C    -0.539000000     3.622000000     2.684000000
C    -1.900000000     3.257000000     2.752000000
H    -2.258000000     2.578000000     3.522000000
C    -2.766000000     3.714000000     1.771000000
O    -3.961000000     3.100000000     1.714000000
C    -4.074000000     1.951000000     0.882000000
C    -4.563000000     0.715000000     1.541000000
C    -4.615000000     0.574000000     2.949000000
H    -4.317000000     1.460000000     3.503000000
C    -4.866000000    -0.331000000     0.700000000
H    -4.597000000    -0.188000000    -0.344000000
O    -4.720000000     2.289000000    -0.338000000
H    -3.040000000     1.760000000     0.559000000
C    -2.290000000     4.575000000     0.740000000
C    -3.079000000     4.773000000    -0.559000000
H    -2.724000000     5.733000000    -0.937000000
H    -4.118000000     4.884000000    -0.240000000
C    -3.046000000     3.625000000    -1.517000000
C    -3.832000000     2.524000000    -1.391000000
C    -3.695000000     1.500000000    -2.326000000
H    -4.360000000     0.645000000    -2.230000000
C    -2.732000000     1.521000000    -3.300000000
O    -2.618000000     0.373000000    -4.116000000
C    -1.447000000    -0.472000000    -3.914000000
H    -1.146000000    -0.347000000    -2.863000000
C    -1.611000000    -1.979000000    -4.070000000
C    -0.549000000    -2.820000000    -4.412000000
H     0.411000000    -2.375000000    -4.658000000
C    -2.783000000    -2.561000000    -3.654000000
H    -3.505000000    -1.887000000    -3.201000000
C    -3.063000000    -3.895000000    -3.806000000
O    -4.346000000    -4.427000000    -3.534000000
C    -2.059000000    -4.811000000    -4.163000000
H    -2.213000000    -5.878000000    -4.299000000
C    -0.795000000    -4.212000000    -4.469000000
O     0.201000000    -5.049000000    -4.969000000
C     1.538000000    -4.760000000    -4.822000000
C     2.250000000    -4.874000000    -3.639000000
H     1.743000000    -5.224000000    -2.743000000
C     2.224000000    -4.480000000    -5.994000000
H     1.657000000    -4.554000000    -6.918000000
C     3.594000000    -4.168000000    -5.923000000
H     4.114000000    -3.912000000    -6.843000000
C     4.303000000    -4.188000000    -4.726000000
H     5.362000000    -3.948000000    -4.698000000
C     3.603000000    -4.592000000    -3.572000000
O     4.209000000    -4.694000000    -2.334000000
C     4.650000000    -3.568000000    -1.605000000
C     5.382000000    -3.764000000    -0.475000000
H     5.637000000    -4.767000000    -0.143000000
C     5.694000000    -2.615000000     0.362000000
O     6.453000000    -2.941000000     1.462000000
C     6.299000000    -2.481000000     2.705000000
C     5.011000000    -2.573000000     3.256000000
H     4.242000000    -3.078000000     2.678000000
C     7.315000000    -1.763000000     3.355000000
H     8.326000000    -1.671000000     2.967000000
C     6.948000000    -0.918000000     4.409000000
H     7.604000000    -0.149000000     4.809000000
C     5.713000000    -0.982000000     4.980000000
H     5.389000000    -0.447000000     5.869000000
C     4.728000000    -1.870000000     4.423000000
O     3.510000000    -1.989000000     4.969000000
C     2.492000000    -1.011000000     5.004000000
C     1.437000000    -1.255000000     5.863000000
H     1.490000000    -2.035000000     6.618000000
C     0.329000000    -0.414000000     5.757000000
O    -0.773000000    -0.793000000     6.499000000
C    -1.987000000    -0.268000000     6.433000000
C    -2.889000000    -0.790000000     5.572000000
H    -2.546000000    -1.534000000     4.859000000
C    -2.358000000     0.777000000     7.276000000
H    -1.528000000     1.275000000     7.771000000
C    -3.567000000     1.519000000     7.113000000
H    -3.800000000     2.404000000     7.699000000
C    -4.526000000     0.962000000     6.212000000
H    -5.505000000     1.433000000     6.230000000
C    -4.207000000    -0.296000000     5.603000000
O    -5.210000000    -0.770000000     4.754000000
C    -5.120000000    -0.573000000     3.457000000
C    -5.530000000    -1.593000000     2.660000000
H    -5.828000000    -2.502000000     3.177000000
C    -5.479000000    -1.485000000     1.299000000
O    -5.680000000    -2.646000000     0.689000000
C    -5.796000000    -2.721000000    -0.693000000
C    -6.704000000    -1.864000000    -1.329000000
H    -7.211000000    -1.066000000    -0.792000000
C    -6.981000000    -2.117000000    -2.668000000
H    -7.723000000    -1.524000000    -3.196000000
C    -6.185000000    -3.013000000    -3.380000000
H    -6.252000000    -2.987000000    -4.464000000
C    -5.160000000    -3.762000000    -2.724000000
C    -4.980000000    -3.623000000    -1.342000000
H    -4.299000000    -4.330000000    -0.875000000
O     3.559000000    -9.589000000     3.979000000
H     3.696000000    -9.131000000     4.808000000
H     3.165000000    -8.933000000     3.405000000
O    -0.355000000    -8.835000000     2.728000000
H     0.246000000    -8.205000000     3.126000000
H     0.216000000    -9.477000000     2.306000000
O    -0.904000000    -4.869000000     5.520000000
H    -0.259000000    -4.790000000     4.818000000
H    -0.681000000    -4.166000000     6.130000000
O     5.907000000    -7.427000000     4.705000000
H     5.212000000    -7.500000000     5.358000000
H     5.451000000    -7.456000000     3.864000000
O     1.493000000    -7.052000000     3.765000000
H     2.061000000    -6.922000000     4.524000000
H     1.200000000    -6.171000000     3.532000000
O    -2.438000000    -8.083000000     0.862000000
H    -2.002000000    -8.835000000     1.264000000
H    -3.323000000    -8.096000000     1.225000000
O     1.834000000    -5.857000000    -0.134000000
H     0.924000000    -5.631000000    -0.328000000
H     2.013000000    -5.431000000     0.705000000
O     6.444000000    -7.289000000     1.068000000
H     5.826000000    -6.998000000     1.738000000
H     7.293000000    -7.287000000     1.509000000
O    -0.543000000    -5.381000000    -1.162000000
H    -1.218000000    -5.366000000    -1.841000000
H    -1.007000000    -5.149000000    -0.357000000
O     3.126000000    -7.463000000    -1.800000000
H     2.752000000    -6.774000000    -1.250000000
H     4.069000000    -7.404000000    -1.649000000
O     4.097000000    -6.922000000     2.450000000
H     3.557000000    -7.420000000     1.836000000
H     3.582000000    -6.138000000     2.639000000
O     3.007000000    -4.897000000     5.825000000
H     2.410000000    -4.611000000     5.133000000
H     3.447000000    -4.095000000     6.106000000
O     2.420000000    -8.560000000     0.818000000
H     3.116000000    -8.865000000     0.236000000
H     2.135000000    -7.730000000     0.437000000
O    -0.825000000    -8.198000000     6.172000000
H    -0.945000000    -7.430000000     5.614000000
H    -0.663000000    -7.838000000     7.044000000
O     0.197000000    -8.087000000    -1.776000000
H     1.151000000    -8.044000000    -1.722000000
H    -0.083000000    -7.173000000    -1.818000000
O    -1.363000000    -5.742000000     1.467000000
H    -0.771000000    -5.899000000     2.203000000
H    -1.652000000    -6.615000000     1.202000000
O    -3.468000000    -4.145000000     1.846000000
H    -3.068000000    -3.280000000     1.751000000
H    -2.758000000    -4.759000000     1.657000000
O    -3.423000000    -4.589000000     5.094000000
H    -2.509000000    -4.821000000     5.257000000
H    -3.459000000    -4.398000000     4.157000000
O     3.374000000    -7.671000000     5.917000000
H     3.281000000    -7.914000000     6.839000000
H     3.326000000    -6.715000000     5.916000000
