201
-1264.44374
C     5.405000000    -1.314000000    -0.029000000
H     5.392000000    -0.606000000     0.795000000
C     4.956000000    -0.933000000    -1.272000000
C     4.978000000    -1.867000000    -2.329000000
H     4.402000000    -1.660000000    -3.227000000
C     4.211000000     0.477000000    -1.482000000
O     4.812000000     1.596000000    -0.659000000
H     3.184000000     0.243000000    -1.164000000
O     4.174000000     0.824000000    -2.901000000
C     3.075000000     1.534000000    -3.356000000
C     2.189000000     0.706000000    -3.990000000
H     2.326000000    -0.369000000    -4.083000000
C     0.907000000     1.153000000    -4.241000000
O    -0.060000000     0.230000000    -4.606000000
C     0.600000000     2.504000000    -4.052000000
C    -0.729000000     3.057000000    -4.530000000
H    -0.581000000     4.130000000    -4.671000000
C    -1.841000000     2.892000000    -3.477000000
C    -1.993000000     3.883000000    -2.509000000
H    -1.405000000     4.797000000    -2.533000000
H    -0.996000000     2.575000000    -5.473000000
C     1.594000000     3.347000000    -3.511000000
H     1.436000000     4.409000000    -3.336000000
C     2.819000000     2.891000000    -2.997000000
C     3.771000000     3.809000000    -2.228000000
H     3.459000000     4.812000000    -2.524000000
H     4.848000000     3.673000000    -2.351000000
C     3.499000000     3.595000000    -0.752000000
C     2.585000000     4.494000000    -0.118000000
H     2.100000000     5.374000000    -0.532000000
C     3.932000000     2.464000000    -0.118000000
C     3.607000000     2.244000000     1.181000000
H     4.052000000     1.379000000     1.667000000
C     2.699000000     3.058000000     1.786000000
O     2.392000000     2.869000000     3.092000000
C     1.134000000     2.174000000     3.390000000
C     1.282000000     1.030000000     4.310000000
C     0.264000000     0.700000000     5.260000000
H    -0.580000000     1.385000000     5.277000000
C     2.321000000     0.115000000     4.069000000
H     3.027000000     0.273000000     3.257000000
O     0.184000000     3.068000000     3.849000000
H     0.814000000     1.849000000     2.389000000
C     2.196000000     4.171000000     1.185000000
C     1.215000000     5.113000000     1.899000000
H     1.166000000     6.112000000     1.460000000
H     1.728000000     5.331000000     2.838000000
C    -0.186000000     4.513000000     1.910000000
C    -1.036000000     4.754000000     0.811000000
H    -0.705000000     5.479000000     0.071000000
C    -0.633000000     3.649000000     2.906000000
C    -1.913000000     3.125000000     2.850000000
H    -2.228000000     2.477000000     3.664000000
C    -2.735000000     3.400000000     1.746000000
O    -3.876000000     2.647000000     1.717000000
C    -4.004000000     1.689000000     0.648000000
C    -4.611000000     0.411000000     1.155000000
C    -4.044000000    -0.193000000     2.297000000
H    -3.275000000     0.414000000     2.768000000
C    -5.485000000    -0.347000000     0.401000000
H    -5.920000000     0.028000000    -0.522000000
O    -4.688000000     2.276000000    -0.482000000
H    -2.978000000     1.481000000     0.311000000
C    -2.356000000     4.266000000     0.753000000
C    -3.204000000     4.701000000    -0.426000000
H    -2.918000000     5.707000000    -0.741000000
H    -4.261000000     4.754000000    -0.158000000
C    -2.964000000     3.738000000    -1.468000000
C    -3.854000000     2.644000000    -1.538000000
C    -3.740000000     1.688000000    -2.508000000
H    -4.281000000     0.751000000    -2.396000000
C    -2.657000000     1.747000000    -3.367000000
O    -2.395000000     0.624000000    -4.105000000
C    -1.179000000    -0.084000000    -3.697000000
H    -0.800000000     0.194000000    -2.703000000
C    -1.436000000    -1.595000000    -3.625000000
C    -0.298000000    -2.440000000    -3.626000000
H     0.665000000    -1.971000000    -3.814000000
C    -2.748000000    -2.104000000    -3.296000000
H    -3.647000000    -1.504000000    -3.179000000
C    -2.892000000    -3.489000000    -3.276000000
O    -4.153000000    -4.093000000    -3.352000000
C    -1.788000000    -4.368000000    -3.298000000
H    -2.032000000    -5.407000000    -3.092000000
C    -0.462000000    -3.827000000    -3.442000000
O     0.570000000    -4.704000000    -3.644000000
C     1.839000000    -4.401000000    -4.203000000
C     2.937000000    -4.197000000    -3.330000000
H     2.972000000    -4.265000000    -2.246000000
C     1.964000000    -4.411000000    -5.580000000
H     1.057000000    -4.455000000    -6.179000000
C     3.215000000    -4.207000000    -6.185000000
H     3.284000000    -4.411000000    -7.251000000
C     4.329000000    -4.052000000    -5.379000000
H     5.258000000    -3.804000000    -5.886000000
C     4.200000000    -4.088000000    -3.978000000
O     5.333000000    -4.029000000    -3.205000000
C     5.481000000    -3.141000000    -2.204000000
C     6.004000000    -3.484000000    -0.907000000
H     6.238000000    -4.522000000    -0.686000000
C     5.985000000    -2.564000000     0.156000000
O     6.647000000    -2.927000000     1.264000000
C     6.289000000    -2.482000000     2.492000000
C     4.953000000    -2.589000000     2.892000000
H     4.271000000    -3.137000000     2.248000000
C     7.195000000    -1.736000000     3.204000000
H     8.205000000    -1.623000000     2.818000000
C     6.788000000    -1.126000000     4.392000000
H     7.462000000    -0.531000000     5.004000000
C     5.432000000    -1.237000000     4.837000000
H     5.042000000    -0.877000000     5.786000000
C     4.515000000    -1.960000000     4.101000000
O     3.260000000    -2.130000000     4.491000000
C     2.338000000    -1.078000000     4.813000000
C     1.436000000    -1.320000000     5.832000000
H     1.626000000    -2.212000000     6.423000000
C     0.393000000    -0.468000000     6.068000000
O    -0.572000000    -0.737000000     7.019000000
C    -1.906000000    -0.487000000     6.655000000
C    -2.392000000    -1.259000000     5.560000000
H    -1.683000000    -1.977000000     5.157000000
C    -2.728000000     0.268000000     7.439000000
H    -2.331000000     0.692000000     8.358000000
C    -4.094000000     0.386000000     7.022000000
H    -4.736000000     0.984000000     7.663000000
C    -4.560000000    -0.235000000     5.871000000
H    -5.617000000    -0.232000000     5.617000000
C    -3.708000000    -1.035000000     5.123000000
O    -4.259000000    -1.840000000     4.155000000
C    -4.648000000    -1.349000000     2.876000000
C    -5.554000000    -2.067000000     2.150000000
H    -5.925000000    -2.978000000     2.612000000
C    -5.894000000    -1.568000000     0.926000000
O    -6.822000000    -2.372000000     0.330000000
C    -6.686000000    -2.739000000    -1.001000000
C    -7.812000000    -2.651000000    -1.860000000
H    -8.730000000    -2.245000000    -1.444000000
C    -7.713000000    -3.069000000    -3.180000000
H    -8.548000000    -3.186000000    -3.867000000
C    -6.513000000    -3.586000000    -3.705000000
H    -6.418000000    -3.857000000    -4.753000000
C    -5.385000000    -3.589000000    -2.877000000
C    -5.464000000    -3.150000000    -1.531000000
H    -4.656000000    -3.348000000    -0.831000000
O     1.837000000    -9.943000000     1.921000000
H     1.288000000    -9.160000000     1.884000000
H     2.571000000    -9.749000000     1.338000000
O    -2.297000000    -7.682000000     1.134000000
H    -1.711000000    -8.426000000     1.000000000
H    -2.893000000    -7.968000000     1.827000000
O     3.862000000    -4.150000000     7.036000000
H     4.614000000    -4.136000000     6.444000000
H     3.891000000    -5.017000000     7.440000000
O     0.413000000    -4.625000000     5.616000000
H     0.042000000    -4.625000000     4.734000000
H    -0.320000000    -4.862000000     6.184000000
O     5.563000000    -5.734000000     2.821000000
H     5.307000000    -5.386000000     1.967000000
H     4.853000000    -5.474000000     3.408000000
O    -1.295000000    -6.839000000     3.800000000
H    -2.240000000    -6.692000000     3.771000000
H    -0.920000000    -6.068000000     3.374000000
O    -5.270000000    -5.556000000     0.608000000
H    -4.716000000    -5.044000000     1.197000000
H    -4.655000000    -6.091000000     0.107000000
O     3.801000000    -5.487000000     0.424000000
H     3.619000000    -6.415000000     0.572000000
H     2.994000000    -5.041000000     0.682000000
O    -2.115000000    -2.604000000    -0.251000000
H    -1.898000000    -3.509000000    -0.476000000
H    -1.307000000    -2.249000000     0.119000000
O    -0.023000000    -7.154000000    -1.550000000
H     0.324000000    -7.413000000    -0.696000000
H     0.753000000    -7.025000000    -2.095000000
O     0.646000000    -7.542000000     1.663000000
H     0.763000000    -6.596000000     1.583000000
H    -0.004000000    -7.644000000     2.359000000
O     2.215000000    -9.238000000     4.472000000
H     2.262000000    -9.602000000     3.588000000
H     2.868000000    -8.539000000     4.478000000
O     3.227000000    -4.925000000     4.169000000
H     2.414000000    -5.039000000     3.679000000
H     3.049000000    -4.195000000     4.762000000
O     0.290000000    -7.759000000     6.102000000
H    -0.123000000    -7.346000000     5.343000000
H     1.025000000    -8.252000000     5.736000000
O    -2.794000000    -3.911000000     2.142000000
H    -1.876000000    -4.158000000     2.253000000
H    -2.816000000    -3.438000000     1.310000000
O    -3.381000000    -4.650000000     4.981000000
H    -4.294000000    -4.929000000     4.900000000
H    -3.210000000    -4.156000000     4.180000000
O    -3.183000000    -6.456000000     6.879000000
H    -2.975000000    -6.074000000     7.731000000
H    -3.254000000    -5.705000000     6.290000000
O     4.262000000    -7.387000000     5.103000000
H     3.684000000    -6.630000000     5.004000000
H     5.081000000    -7.021000000     5.436000000
O    -1.597000000    -5.275000000    -0.311000000
H    -2.073000000    -5.877000000     0.262000000
H    -1.234000000    -5.835000000    -0.997000000
