201
-1248.08411
C     5.034000000    -1.264000000     0.119000000
H     5.435000000    -0.494000000     0.774000000
C     4.356000000    -1.067000000    -1.085000000
C     3.952000000    -2.080000000    -1.896000000
H     3.259000000    -1.784000000    -2.680000000
C     3.850000000     0.319000000    -1.418000000
O     4.577000000     1.357000000    -0.704000000
H     2.810000000     0.290000000    -1.060000000
O     3.796000000     0.612000000    -2.817000000
C     2.776000000     1.322000000    -3.334000000
C     1.831000000     0.554000000    -4.061000000
H     2.028000000    -0.475000000    -4.352000000
C     0.597000000     1.136000000    -4.425000000
O    -0.326000000     0.235000000    -4.962000000
C     0.325000000     2.487000000    -4.125000000
C    -1.002000000     3.084000000    -4.467000000
H    -0.963000000     4.162000000    -4.641000000
C    -2.021000000     2.825000000    -3.348000000
C    -2.206000000     3.707000000    -2.314000000
H    -1.594000000     4.581000000    -2.108000000
H    -1.303000000     2.744000000    -5.460000000
C     1.317000000     3.222000000    -3.536000000
H     1.105000000     4.260000000    -3.294000000
C     2.537000000     2.668000000    -3.096000000
C     3.517000000     3.571000000    -2.313000000
H     3.297000000     4.587000000    -2.647000000
H     4.545000000     3.390000000    -2.636000000
C     3.239000000     3.350000000    -0.856000000
C     2.380000000     4.251000000    -0.137000000
H     1.897000000     5.055000000    -0.687000000
C     3.815000000     2.317000000    -0.125000000
C     3.601000000     2.246000000     1.247000000
H     4.001000000     1.370000000     1.751000000
C     2.762000000     3.124000000     1.903000000
O     2.591000000     2.930000000     3.245000000
C     1.389000000     2.218000000     3.580000000
C     1.746000000     1.118000000     4.583000000
C     0.717000000     0.472000000     5.224000000
H    -0.350000000     0.618000000     5.074000000
C     3.059000000     0.760000000     4.876000000
H     3.892000000     1.143000000     4.292000000
O     0.389000000     3.192000000     4.043000000
H     0.958000000     1.706000000     2.706000000
C     2.140000000     4.175000000     1.273000000
C     1.208000000     5.094000000     1.990000000
H     1.053000000     6.069000000     1.522000000
H     1.613000000     5.367000000     2.967000000
C    -0.206000000     4.508000000     2.066000000
C    -1.058000000     4.653000000     0.949000000
H    -0.812000000     5.232000000     0.063000000
C    -0.572000000     3.660000000     3.123000000
C    -1.757000000     2.963000000     3.131000000
H    -1.948000000     2.203000000     3.884000000
C    -2.660000000     3.202000000     2.095000000
O    -3.764000000     2.389000000     1.987000000
C    -3.793000000     1.413000000     0.872000000
C    -4.311000000     0.079000000     1.309000000
C    -4.021000000    -0.402000000     2.594000000
H    -3.400000000     0.306000000     3.136000000
C    -5.069000000    -0.753000000     0.445000000
H    -5.388000000    -0.503000000    -0.563000000
O    -4.631000000     1.888000000    -0.216000000
H    -2.781000000     1.239000000     0.477000000
C    -2.329000000     4.086000000     1.050000000
C    -3.291000000     4.376000000    -0.114000000
H    -3.117000000     5.409000000    -0.422000000
H    -4.306000000     4.251000000     0.269000000
C    -3.140000000     3.425000000    -1.284000000
C    -3.907000000     2.256000000    -1.394000000
C    -3.728000000     1.335000000    -2.432000000
H    -4.310000000     0.417000000    -2.445000000
C    -2.741000000     1.640000000    -3.372000000
O    -2.542000000     0.705000000    -4.339000000
C    -1.430000000    -0.100000000    -4.148000000
H    -1.045000000    -0.135000000    -3.118000000
C    -1.727000000    -1.542000000    -4.492000000
C    -0.673000000    -2.557000000    -4.472000000
H     0.337000000    -2.183000000    -4.327000000
C    -3.044000000    -1.964000000    -4.478000000
H    -3.901000000    -1.296000000    -4.429000000
C    -3.392000000    -3.308000000    -4.481000000
O    -4.677000000    -3.808000000    -4.330000000
C    -2.383000000    -4.287000000    -4.628000000
H    -2.554000000    -5.359000000    -4.570000000
C    -1.027000000    -3.869000000    -4.728000000
O    -0.014000000    -4.788000000    -4.710000000
C     1.357000000    -4.526000000    -4.773000000
C     2.086000000    -4.525000000    -3.628000000
H     1.567000000    -4.654000000    -2.682000000
C     1.967000000    -4.304000000    -6.037000000
H     1.441000000    -4.305000000    -6.988000000
C     3.352000000    -4.232000000    -6.078000000
H     3.830000000    -4.135000000    -7.050000000
C     4.113000000    -4.314000000    -4.938000000
H     5.182000000    -4.514000000    -4.928000000
C     3.473000000    -4.390000000    -3.697000000
O     4.212000000    -4.444000000    -2.490000000
C     4.391000000    -3.395000000    -1.634000000
C     5.013000000    -3.627000000    -0.360000000
H     5.180000000    -4.635000000     0.009000000
C     5.385000000    -2.553000000     0.528000000
O     5.869000000    -2.796000000     1.778000000
C     6.073000000    -1.932000000     2.804000000
C     5.109000000    -1.780000000     3.801000000
H     4.143000000    -2.257000000     3.657000000
C     7.389000000    -1.426000000     2.904000000
H     8.150000000    -1.867000000     2.266000000
C     7.703000000    -0.609000000     4.002000000
H     8.733000000    -0.262000000     3.982000000
C     6.673000000    -0.196000000     4.899000000
H     6.723000000     0.459000000     5.765000000
C     5.382000000    -0.881000000     4.840000000
O     4.601000000    -0.704000000     5.954000000
C     3.335000000    -0.258000000     5.726000000
C     2.251000000    -0.873000000     6.367000000
H     2.391000000    -1.703000000     7.054000000
C     0.947000000    -0.573000000     6.068000000
O    -0.059000000    -1.344000000     6.707000000
C    -1.426000000    -1.049000000     6.548000000
C    -2.179000000    -1.638000000     5.512000000
H    -1.761000000    -2.381000000     4.839000000
C    -1.988000000     0.038000000     7.204000000
H    -1.332000000     0.645000000     7.823000000
C    -3.308000000     0.400000000     6.907000000
H    -3.645000000     1.331000000     7.356000000
C    -4.094000000    -0.199000000     6.002000000
H    -5.104000000     0.130000000     5.771000000
C    -3.523000000    -1.277000000     5.294000000
O    -4.291000000    -2.001000000     4.359000000
C    -4.601000000    -1.568000000     3.097000000
C    -5.250000000    -2.445000000     2.263000000
H    -5.584000000    -3.425000000     2.594000000
C    -5.515000000    -1.994000000     0.967000000
O    -5.985000000    -2.936000000     0.105000000
C    -6.252000000    -2.795000000    -1.251000000
C    -7.384000000    -2.042000000    -1.693000000
H    -7.984000000    -1.520000000    -0.952000000
C    -7.590000000    -1.918000000    -3.114000000
H    -8.336000000    -1.243000000    -3.524000000
C    -6.767000000    -2.633000000    -3.986000000
H    -6.905000000    -2.513000000    -5.057000000
C    -5.640000000    -3.285000000    -3.484000000
C    -5.373000000    -3.398000000    -2.141000000
H    -4.598000000    -4.098000000    -1.840000000
O     5.446000000    -8.318000000     4.868000000
H     4.813000000    -8.898000000     4.443000000
H     5.208000000    -7.442000000     4.566000000
O    -0.761000000    -4.674000000     5.216000000
H    -0.081000000    -4.567000000     4.551000000
H    -0.513000000    -4.065000000     5.912000000
O     4.486000000    -5.985000000     3.782000000
H     4.764000000    -5.497000000     4.557000000
H     3.719000000    -5.509000000     3.462000000
O     1.221000000    -8.704000000     5.288000000
H     1.397000000    -7.790000000     5.508000000
H     1.606000000    -9.203000000     6.009000000
O    -2.064000000    -9.014000000     1.452000000
H    -2.328000000    -8.336000000     0.829000000
H    -1.107000000    -9.001000000     1.428000000
O     1.970000000    -6.057000000    -0.550000000
H     2.807000000    -6.500000000    -0.412000000
H     1.908000000    -5.430000000     0.170000000
O     6.429000000    -6.635000000     1.364000000
H     5.930000000    -6.403000000     2.146000000
H     7.090000000    -5.947000000     1.288000000
O    -0.871000000    -6.428000000     2.364000000
H    -1.058000000    -6.951000000     3.144000000
H    -0.043000000    -5.990000000     2.563000000
O     1.941000000    -7.563000000     2.390000000
H     2.523000000    -8.157000000     1.917000000
H     2.244000000    -6.688000000     2.147000000
O     3.984000000    -4.598000000     6.271000000
H     4.935000000    -4.499000000     6.228000000
H     3.735000000    -4.163000000     7.087000000
O     1.635000000    -5.946000000     6.016000000
H     1.623000000    -5.417000000     5.219000000
H     2.461000000    -5.717000000     6.443000000
O    -4.521000000    -6.092000000     1.209000000
H    -3.791000000    -5.477000000     1.135000000
H    -4.176000000    -6.915000000     0.863000000
O     4.139000000    -7.635000000    -0.240000000
H     4.844000000    -7.346000000     0.340000000
H     3.798000000    -8.428000000     0.173000000
O    -1.503000000    -7.039000000     6.264000000
H    -1.413000000    -6.118000000     6.021000000
H    -0.604000000    -7.365000000     6.308000000
O    -0.339000000    -7.002000000    -2.157000000
H     0.379000000    -6.595000000    -1.672000000
H    -1.039000000    -7.097000000    -1.512000000
O    -0.117000000    -4.571000000     7.830000000
H     0.470000000    -5.139000000     7.331000000
H     0.056000000    -4.792000000     8.745000000
O     0.684000000    -9.975000000     2.491000000
H     0.854000000    -9.116000000     2.877000000
H     0.829000000   -10.593000000     3.207000000
O    -2.416000000    -4.313000000     1.545000000
H    -1.859000000    -5.075000000     1.701000000
H    -1.814000000    -3.635000000     1.237000000
O    -3.250000000    -4.881000000     4.435000000
H    -2.342000000    -4.838000000     4.733000000
H    -3.233000000    -4.493000000     3.560000000
