201
-1269.21466
C    -4.307000000    -1.470000000    -2.170000000
H    -4.507000000    -0.553000000    -2.719000000
C    -3.971000000    -1.468000000    -0.845000000
C    -3.687000000    -2.663000000    -0.219000000
H    -3.447000000    -2.774000000     0.836000000
C    -3.953000000    -0.171000000    -0.009000000
O    -4.749000000     0.823000000    -0.651000000
H    -2.901000000     0.130000000     0.109000000
O    -4.452000000    -0.386000000     1.272000000
C    -3.789000000     0.156000000     2.318000000
C    -2.926000000    -0.698000000     3.089000000
H    -2.858000000    -1.764000000     2.885000000
C    -2.196000000    -0.242000000     4.118000000
O    -1.353000000    -1.020000000     4.852000000
C    -2.151000000     1.189000000     4.369000000
C    -1.138000000     1.792000000     5.341000000
H    -1.494000000     2.766000000     5.680000000
C     0.262000000     1.915000000     4.736000000
C     0.620000000     3.111000000     4.024000000
H    -0.029000000     3.984000000     4.049000000
H    -1.172000000     1.140000000     6.216000000
C    -2.938000000     2.051000000     3.582000000
H    -2.863000000     3.135000000     3.594000000
C    -3.740000000     1.521000000     2.569000000
C    -4.607000000     2.500000000     1.811000000
H    -4.921000000     3.329000000     2.449000000
H    -5.580000000     2.042000000     1.618000000
C    -4.074000000     2.852000000     0.408000000
C    -3.313000000     4.014000000     0.310000000
H    -3.166000000     4.489000000     1.276000000
C    -4.235000000     2.081000000    -0.739000000
C    -3.537000000     2.352000000    -1.922000000
H    -3.536000000     1.663000000    -2.762000000
C    -2.665000000     3.425000000    -1.938000000
O    -1.827000000     3.547000000    -3.052000000
C    -0.584000000     2.841000000    -2.839000000
C    -0.294000000     1.889000000    -3.986000000
C     1.001000000     1.351000000    -4.108000000
H     1.815000000     1.575000000    -3.424000000
C    -1.320000000     1.505000000    -4.889000000
H    -2.274000000     2.016000000    -4.991000000
O     0.457000000     3.827000000    -2.708000000
H    -0.775000000     2.341000000    -1.878000000
C    -2.532000000     4.281000000    -0.807000000
C    -1.471000000     5.383000000    -0.721000000
H    -1.797000000     6.047000000     0.082000000
H    -1.347000000     5.847000000    -1.701000000
C    -0.061000000     4.838000000    -0.412000000
C     0.344000000     4.912000000     0.946000000
H    -0.379000000     5.281000000     1.669000000
C     0.782000000     4.165000000    -1.380000000
C     2.071000000     3.836000000    -0.996000000
H     2.738000000     3.333000000    -1.691000000
C     2.504000000     4.060000000     0.324000000
O     3.734000000     3.474000000     0.633000000
C     3.806000000     2.145000000     1.258000000
C     4.992000000     1.442000000     0.662000000
C     5.406000000     1.673000000    -0.700000000
H     5.006000000     2.532000000    -1.233000000
C     5.306000000     0.227000000     1.113000000
H     4.961000000    -0.105000000     2.089000000
O     3.964000000     2.168000000     2.713000000
H     2.906000000     1.570000000     0.993000000
C     1.631000000     4.559000000     1.262000000
C     2.106000000     4.576000000     2.733000000
H     1.790000000     5.443000000     3.317000000
H     3.177000000     4.790000000     2.701000000
C     1.860000000     3.244000000     3.475000000
C     2.739000000     2.123000000     3.400000000
C     2.384000000     0.928000000     4.003000000
H     3.068000000     0.084000000     3.965000000
C     1.236000000     0.843000000     4.727000000
O     0.894000000    -0.426000000     5.099000000
C    -0.041000000    -1.191000000     4.289000000
H    -0.132000000    -0.779000000     3.273000000
C     0.343000000    -2.629000000     4.093000000
C    -0.665000000    -3.598000000     4.191000000
H    -1.712000000    -3.422000000     4.423000000
C     1.621000000    -3.003000000     3.740000000
H     2.453000000    -2.323000000     3.577000000
C     1.942000000    -4.365000000     3.507000000
O     3.264000000    -4.747000000     3.269000000
C     0.964000000    -5.319000000     3.545000000
H     1.124000000    -6.379000000     3.365000000
C    -0.347000000    -4.927000000     3.825000000
O    -1.282000000    -5.911000000     3.847000000
C    -2.430000000    -5.673000000     3.139000000
C    -2.428000000    -5.698000000     1.756000000
H    -1.496000000    -6.019000000     1.297000000
C    -3.602000000    -5.410000000     3.846000000
H    -3.632000000    -5.404000000     4.933000000
C    -4.787000000    -5.086000000     3.134000000
H    -5.746000000    -4.819000000     3.571000000
C    -4.722000000    -4.988000000     1.752000000
H    -5.540000000    -4.639000000     1.128000000
C    -3.566000000    -5.281000000     1.062000000
O    -3.483000000    -5.083000000    -0.326000000
C    -3.720000000    -3.851000000    -0.957000000
C    -4.176000000    -3.902000000    -2.250000000
H    -4.354000000    -4.882000000    -2.686000000
C    -4.403000000    -2.720000000    -2.918000000
O    -4.845000000    -2.676000000    -4.185000000
C    -4.599000000    -1.800000000    -5.167000000
C    -3.445000000    -1.104000000    -5.304000000
H    -2.703000000    -1.200000000    -4.516000000
C    -5.501000000    -1.833000000    -6.242000000
H    -6.323000000    -2.542000000    -6.173000000
C    -5.388000000    -1.098000000    -7.461000000
H    -6.152000000    -1.067000000    -8.234000000
C    -4.221000000    -0.300000000    -7.520000000
H    -4.053000000     0.308000000    -8.405000000
C    -3.252000000    -0.351000000    -6.494000000
O    -2.028000000     0.274000000    -6.805000000
C    -0.994000000     0.579000000    -5.873000000
C     0.275000000     0.028000000    -5.952000000
H     0.430000000    -0.728000000    -6.717000000
C     1.324000000     0.413000000    -5.135000000
O     2.597000000    -0.132000000    -5.262000000
C     3.774000000     0.560000000    -5.154000000
C     4.474000000     0.558000000    -3.968000000
H     4.048000000     0.070000000    -3.095000000
C     4.311000000     1.330000000    -6.253000000
H     3.756000000     1.391000000    -7.186000000
C     5.561000000     1.914000000    -6.208000000
H     5.878000000     2.571000000    -7.013000000
C     6.261000000     1.793000000    -4.999000000
H     7.274000000     2.186000000    -4.994000000
C     5.763000000     1.131000000    -3.862000000
O     6.568000000     1.057000000    -2.743000000
C     6.109000000     0.763000000    -1.487000000
C     6.540000000    -0.402000000    -0.861000000
H     7.037000000    -1.166000000    -1.453000000
C     6.082000000    -0.690000000     0.426000000
O     6.357000000    -1.966000000     0.849000000
C     5.842000000    -2.424000000     2.069000000
C     6.493000000    -2.157000000     3.285000000
H     7.317000000    -1.448000000     3.289000000
C     5.991000000    -2.647000000     4.449000000
H     6.464000000    -2.424000000     5.402000000
C     4.927000000    -3.536000000     4.453000000
H     4.599000000    -3.896000000     5.424000000
C     4.348000000    -3.855000000     3.256000000
C     4.784000000    -3.296000000     2.083000000
H     4.296000000    -3.603000000     1.161000000
O    -0.916000000    -5.484000000    -2.128000000
H    -0.234000000    -5.305000000    -1.481000000
H    -1.727000000    -5.504000000    -1.621000000
O     2.861000000    -6.687000000    -3.423000000
H     1.927000000    -6.833000000    -3.271000000
H     2.986000000    -5.752000000    -3.260000000
O     2.494000000    -2.816000000    -5.823000000
H     2.341000000    -1.900000000    -5.591000000
H     1.638000000    -3.234000000    -5.725000000
O     2.914000000    -8.784000000    -4.955000000
H     2.295000000    -9.244000000    -4.388000000
H     3.115000000    -7.975000000    -4.485000000
O     6.007000000    -2.226000000    -4.851000000
H     6.011000000    -3.106000000    -5.226000000
H     5.409000000    -2.286000000    -4.106000000
O     0.208000000    -7.943000000    -1.152000000
H     0.618000000    -7.088000000    -1.284000000
H    -0.729000000    -7.777000000    -1.253000000
O     3.573000000    -6.361000000    -0.036000000
H     2.976000000    -6.762000000     0.597000000
H     3.019000000    -5.772000000    -0.547000000
O     4.570000000    -3.588000000    -2.748000000
H     4.028000000    -3.925000000    -2.035000000
H     4.513000000    -4.257000000    -3.430000000
O    -0.433000000    -1.258000000    -3.445000000
H     0.165000000    -1.268000000    -2.698000000
H    -0.796000000    -0.372000000    -3.449000000
O     5.362000000    -7.019000000    -2.081000000
H     4.548000000    -7.254000000    -2.527000000
H     5.080000000    -6.672000000    -1.235000000
O    -1.829000000    -7.895000000    -3.534000000
H    -1.909000000    -7.670000000    -2.607000000
H    -2.519000000    -8.542000000    -3.683000000
O    -0.167000000    -3.327000000    -5.219000000
H    -0.283000000    -2.911000000    -4.364000000
H    -0.411000000    -4.241000000    -5.076000000
O     4.226000000    -4.983000000    -5.260000000
H     3.670000000    -4.255000000    -5.536000000
H     3.852000000    -5.749000000    -5.696000000
O     0.289000000    -8.198000000     1.481000000
H     0.454000000    -7.638000000     0.723000000
H    -0.536000000    -8.639000000     1.277000000
O     5.306000000    -7.315000000     2.040000000
H     4.516000000    -7.548000000     2.527000000
H     5.006000000    -6.688000000     1.382000000
O    -2.457000000    -7.938000000    -0.960000000
H    -2.261000000    -8.662000000    -0.365000000
H    -3.026000000    -7.359000000    -0.453000000
O     2.030000000    -6.610000000    -6.502000000
H     1.271000000    -6.320000000    -5.995000000
H     2.295000000    -7.431000000    -6.088000000
O     2.679000000    -8.103000000     2.610000000
H     1.874000000    -8.151000000     2.095000000
H     2.410000000    -8.335000000     3.498000000
O     0.056000000    -6.179000000    -4.594000000
H    -0.609000000    -6.845000000    -4.770000000
H    -0.183000000    -5.822000000    -3.739000000
