201
-1236.58395
C     4.852000000    -0.890000000    -0.134000000
H     4.817000000    -0.028000000     0.527000000
C     4.361000000    -0.771000000    -1.461000000
C     4.393000000    -1.825000000    -2.384000000
H     3.969000000    -1.706000000    -3.377000000
C     3.625000000     0.476000000    -1.844000000
O     4.301000000     1.597000000    -1.247000000
H     2.570000000     0.461000000    -1.534000000
O     3.530000000     0.691000000    -3.314000000
C     2.319000000     1.245000000    -3.752000000
C     1.427000000     0.302000000    -4.384000000
H     1.806000000    -0.711000000    -4.491000000
C     0.200000000     0.795000000    -4.780000000
O    -0.653000000    -0.219000000    -5.158000000
C    -0.219000000     2.118000000    -4.617000000
C    -1.597000000     2.672000000    -4.880000000
H    -1.477000000     3.720000000    -5.164000000
C    -2.465000000     2.404000000    -3.637000000
C    -2.741000000     3.419000000    -2.731000000
H    -2.268000000     4.374000000    -2.945000000
H    -2.024000000     2.185000000    -5.759000000
C     0.744000000     2.974000000    -4.009000000
H     0.403000000     3.985000000    -3.799000000
C     2.016000000     2.551000000    -3.579000000
C     2.957000000     3.542000000    -3.000000000
H     2.785000000     4.532000000    -3.427000000
H     3.970000000     3.194000000    -3.215000000
C     2.788000000     3.537000000    -1.446000000
C     2.027000000     4.519000000    -0.824000000
H     1.378000000     5.152000000    -1.424000000
C     3.554000000     2.609000000    -0.706000000
C     3.494000000     2.642000000     0.684000000
H     4.087000000     1.961000000     1.289000000
C     2.723000000     3.544000000     1.330000000
O     2.649000000     3.446000000     2.686000000
C     1.520000000     2.633000000     3.138000000
C     1.938000000     1.705000000     4.330000000
C     0.970000000     1.400000000     5.318000000
H    -0.024000000     1.806000000     5.152000000
C     3.179000000     1.143000000     4.453000000
H     3.956000000     1.419000000     3.744000000
O     0.436000000     3.534000000     3.526000000
H     1.164000000     1.919000000     2.381000000
C     2.049000000     4.513000000     0.593000000
C     1.120000000     5.398000000     1.350000000
H     0.902000000     6.293000000     0.763000000
H     1.535000000     5.584000000     2.342000000
C    -0.292000000     4.728000000     1.553000000
C    -1.324000000     4.900000000     0.614000000
H    -1.251000000     5.653000000    -0.166000000
C    -0.510000000     3.790000000     2.548000000
C    -1.742000000     3.121000000     2.638000000
H    -1.938000000     2.375000000     3.403000000
C    -2.717000000     3.302000000     1.707000000
O    -3.705000000     2.395000000     1.899000000
C    -3.732000000     1.232000000     0.954000000
C    -4.059000000    -0.082000000     1.635000000
C    -3.488000000    -0.363000000     2.866000000
H    -2.849000000     0.348000000     3.385000000
C    -4.923000000    -1.072000000     1.075000000
H    -5.280000000    -0.868000000     0.069000000
O    -4.522000000     1.542000000    -0.171000000
H    -2.717000000     0.981000000     0.614000000
C    -2.474000000     4.138000000     0.594000000
C    -3.530000000     4.249000000    -0.443000000
H    -3.690000000     5.254000000    -0.839000000
H    -4.478000000     4.093000000     0.076000000
C    -3.367000000     3.212000000    -1.492000000
C    -3.877000000     1.953000000    -1.316000000
C    -3.823000000     0.965000000    -2.307000000
H    -4.296000000    -0.012000000    -2.254000000
C    -3.102000000     1.214000000    -3.466000000
O    -2.901000000     0.161000000    -4.354000000
C    -1.646000000    -0.572000000    -4.176000000
H    -1.170000000    -0.283000000    -3.228000000
C    -1.847000000    -2.088000000    -4.071000000
C    -0.809000000    -3.051000000    -4.150000000
H     0.177000000    -2.681000000    -4.421000000
C    -3.113000000    -2.613000000    -3.669000000
H    -4.083000000    -2.122000000    -3.656000000
C    -3.274000000    -3.949000000    -3.397000000
O    -4.534000000    -4.460000000    -3.336000000
C    -2.220000000    -4.872000000    -3.484000000
H    -2.423000000    -5.932000000    -3.356000000
C    -0.993000000    -4.371000000    -3.839000000
O     0.121000000    -5.263000000    -3.835000000
C     1.441000000    -4.964000000    -4.139000000
C     2.433000000    -4.678000000    -3.173000000
H     2.168000000    -4.687000000    -2.118000000
C     1.736000000    -4.881000000    -5.478000000
H     0.978000000    -5.133000000    -6.215000000
C     3.057000000    -4.705000000    -5.897000000
H     3.268000000    -4.775000000    -6.961000000
C     4.054000000    -4.519000000    -4.888000000
H     5.094000000    -4.402000000    -5.182000000
C     3.783000000    -4.469000000    -3.569000000
O     4.836000000    -4.176000000    -2.676000000
C     4.903000000    -3.063000000    -1.906000000
C     5.395000000    -3.155000000    -0.640000000
H     5.596000000    -4.148000000    -0.246000000
C     5.456000000    -2.104000000     0.253000000
O     5.871000000    -2.391000000     1.516000000
C     6.145000000    -1.495000000     2.502000000
C     5.294000000    -1.352000000     3.580000000
H     4.456000000    -2.044000000     3.617000000
C     7.338000000    -0.758000000     2.432000000
H     8.024000000    -0.931000000     1.607000000
C     7.688000000     0.177000000     3.508000000
H     8.609000000     0.754000000     3.504000000
C     6.903000000     0.130000000     4.622000000
H     7.231000000     0.737000000     5.462000000
C     5.654000000    -0.484000000     4.622000000
O     4.819000000    -0.242000000     5.714000000
C     3.517000000     0.306000000     5.540000000
C     2.554000000     0.026000000     6.516000000
H     2.791000000    -0.651000000     7.333000000
C     1.255000000     0.472000000     6.301000000
O     0.261000000     0.147000000     7.296000000
C    -1.045000000     0.050000000     6.888000000
C    -1.373000000    -0.794000000     5.854000000
H    -0.585000000    -1.380000000     5.388000000
C    -2.091000000     0.826000000     7.368000000
H    -1.963000000     1.622000000     8.096000000
C    -3.439000000     0.670000000     6.883000000
H    -4.188000000     1.347000000     7.285000000
C    -3.695000000    -0.267000000     5.948000000
H    -4.705000000    -0.472000000     5.603000000
C    -2.707000000    -1.118000000     5.599000000
O    -3.026000000    -2.012000000     4.597000000
C    -3.661000000    -1.590000000     3.470000000
C    -4.423000000    -2.519000000     2.904000000
H    -4.607000000    -3.446000000     3.442000000
C    -5.071000000    -2.291000000     1.712000000
O    -5.877000000    -3.282000000     1.203000000
C    -6.137000000    -3.360000000    -0.162000000
C    -7.468000000    -3.107000000    -0.621000000
H    -8.164000000    -2.824000000     0.164000000
C    -7.748000000    -3.241000000    -1.978000000
H    -8.774000000    -3.176000000    -2.330000000
C    -6.773000000    -3.670000000    -2.856000000
H    -7.010000000    -3.883000000    -3.895000000
C    -5.455000000    -3.886000000    -2.448000000
C    -5.105000000    -3.636000000    -1.087000000
H    -4.115000000    -3.877000000    -0.707000000
O    -0.719000000    -4.526000000     7.999000000
H    -0.351000000    -4.094000000     8.769000000
H    -0.389000000    -4.018000000     7.258000000
O    -4.163000000    -6.068000000     1.644000000
H    -3.468000000    -5.553000000     1.234000000
H    -4.289000000    -6.813000000     1.057000000
O     0.393000000    -3.775000000     5.662000000
H     0.184000000    -4.159000000     4.810000000
H     1.270000000    -4.103000000     5.864000000
O     3.336000000    -9.453000000     0.156000000
H     4.256000000    -9.707000000     0.233000000
H     2.935000000   -10.157000000    -0.353000000
O    -2.402000000    -5.119000000     3.933000000
H    -2.098000000    -4.315000000     3.512000000
H    -1.745000000    -5.775000000     3.700000000
O     1.000000000    -6.841000000    -1.087000000
H     0.120000000    -7.032000000    -1.411000000
H     0.858000000    -6.421000000    -0.239000000
O     2.126000000    -9.186000000     4.702000000
H     2.900000000    -9.677000000     4.424000000
H     1.804000000    -8.772000000     3.901000000
O    -1.999000000    -4.793000000     0.369000000
H    -1.330000000    -4.143000000     0.585000000
H    -1.523000000    -5.623000000     0.333000000
O    -3.262000000    -8.076000000     3.718000000
H    -3.503000000    -7.177000000     3.498000000
H    -2.331000000    -8.134000000     3.502000000
O     5.839000000    -7.559000000     1.117000000
H     5.874000000    -8.461000000     0.798000000
H     5.018000000    -7.213000000     0.767000000
O    -0.704000000   -10.245000000     0.459000000
H    -0.021000000   -10.274000000    -0.211000000
H    -0.290000000    -9.810000000     1.204000000
O     1.378000000    -8.704000000     1.844000000
H     1.211000000    -7.769000000     1.729000000
H     2.061000000    -8.906000000     1.204000000
O    -0.736000000    -7.455000000     3.232000000
H    -0.116000000    -6.730000000     3.312000000
H    -0.222000000    -8.169000000     2.856000000
O     2.480000000    -6.229000000     4.868000000
H     1.874000000    -5.814000000     4.254000000
H     1.968000000    -6.929000000     5.273000000
O    -0.015000000    -7.579000000     7.432000000
H     0.882000000    -7.524000000     7.102000000
H    -0.302000000    -6.668000000     7.498000000
O     4.164000000   -10.043000000     2.890000000
H     3.514000000    -9.508000000     2.435000000
H     4.054000000   -10.919000000     2.521000000
O    -3.314000000    -4.686000000     6.737000000
H    -3.132000000    -4.959000000     5.838000000
H    -2.471000000    -4.757000000     7.185000000
O     3.577000000    -5.983000000     0.276000000
H     3.257000000    -6.474000000    -0.480000000
H     2.797000000    -5.560000000     0.635000000
O    -1.557000000    -7.420000000    -0.095000000
H    -1.299000000    -8.305000000     0.162000000
H    -2.466000000    -7.508000000    -0.380000000
