201
-1237.86500
C     4.913000000    -1.218000000     0.226000000
H     4.777000000    -0.477000000     1.010000000
C     4.482000000    -0.940000000    -1.041000000
C     4.518000000    -1.915000000    -1.979000000
H     4.238000000    -1.833000000    -3.026000000
C     3.927000000     0.443000000    -1.418000000
O     4.790000000     1.472000000    -0.672000000
H     2.878000000     0.484000000    -1.091000000
O     3.939000000     0.693000000    -2.844000000
C     2.818000000     1.271000000    -3.503000000
C     1.939000000     0.507000000    -4.206000000
H     2.219000000    -0.531000000    -4.365000000
C     0.727000000     1.040000000    -4.660000000
O    -0.213000000     0.245000000    -5.219000000
C     0.386000000     2.407000000    -4.401000000
C    -0.985000000     2.894000000    -4.810000000
H    -0.857000000     3.967000000    -4.965000000
C    -2.058000000     2.668000000    -3.736000000
C    -2.293000000     3.629000000    -2.767000000
H    -1.677000000     4.521000000    -2.691000000
H    -1.408000000     2.447000000    -5.712000000
C     1.341000000     3.162000000    -3.658000000
H     1.148000000     4.216000000    -3.478000000
C     2.543000000     2.627000000    -3.235000000
C     3.429000000     3.506000000    -2.355000000
H     3.273000000     4.560000000    -2.596000000
H     4.452000000     3.401000000    -2.723000000
C     3.221000000     3.334000000    -0.870000000
C     2.332000000     4.189000000    -0.265000000
H     1.725000000     4.925000000    -0.786000000
C     3.965000000     2.467000000    -0.078000000
C     3.687000000     2.286000000     1.274000000
H     4.132000000     1.438000000     1.790000000
C     2.919000000     3.188000000     1.922000000
O     2.492000000     2.829000000     3.186000000
C     1.136000000     2.291000000     3.494000000
C     1.118000000     1.156000000     4.506000000
C    -0.096000000     0.637000000     4.967000000
H    -1.044000000     1.092000000     4.691000000
C     2.274000000     0.358000000     4.742000000
H     3.184000000     0.700000000     4.256000000
O     0.141000000     3.294000000     3.801000000
H     0.783000000     1.912000000     2.523000000
C     2.179000000     4.152000000     1.171000000
C     1.160000000     5.074000000     1.791000000
H     1.268000000     6.062000000     1.339000000
H     1.490000000     5.299000000     2.808000000
C    -0.214000000     4.469000000     1.703000000
C    -1.103000000     4.680000000     0.616000000
H    -0.833000000     5.216000000    -0.291000000
C    -0.679000000     3.659000000     2.774000000
C    -1.952000000     3.159000000     2.764000000
H    -2.287000000     2.567000000     3.612000000
C    -2.790000000     3.390000000     1.670000000
O    -4.009000000     2.720000000     1.594000000
C    -4.084000000     1.590000000     0.709000000
C    -4.828000000     0.415000000     1.264000000
C    -5.108000000     0.331000000     2.629000000
H    -4.767000000     1.164000000     3.238000000
C    -5.343000000    -0.627000000     0.477000000
H    -5.234000000    -0.615000000    -0.605000000
O    -4.766000000     1.976000000    -0.638000000
H    -3.069000000     1.220000000     0.500000000
C    -2.354000000     4.154000000     0.584000000
C    -3.232000000     4.420000000    -0.548000000
H    -3.139000000     5.448000000    -0.905000000
H    -4.248000000     4.383000000    -0.151000000
C    -3.155000000     3.362000000    -1.719000000
C    -3.902000000     2.223000000    -1.706000000
C    -3.725000000     1.303000000    -2.668000000
H    -4.346000000     0.411000000    -2.644000000
C    -2.779000000     1.495000000    -3.644000000
O    -2.466000000     0.391000000    -4.468000000
C    -1.148000000    -0.219000000    -4.210000000
H    -0.936000000     0.096000000    -3.178000000
C    -1.206000000    -1.747000000    -4.145000000
C    -0.294000000    -2.516000000    -4.889000000
H     0.214000000    -2.131000000    -5.770000000
C    -2.009000000    -2.389000000    -3.135000000
H    -2.713000000    -1.778000000    -2.576000000
C    -1.844000000    -3.769000000    -2.944000000
O    -2.777000000    -4.435000000    -2.082000000
C    -0.916000000    -4.509000000    -3.633000000
H    -0.923000000    -5.565000000    -3.379000000
C    -0.062000000    -3.863000000    -4.576000000
O     0.836000000    -4.583000000    -5.356000000
C     2.179000000    -4.604000000    -5.174000000
C     2.846000000    -4.430000000    -3.938000000
H     2.325000000    -4.323000000    -2.990000000
C     3.006000000    -4.649000000    -6.337000000
H     2.560000000    -4.640000000    -7.328000000
C     4.396000000    -4.747000000    -6.172000000
H     5.069000000    -4.717000000    -7.025000000
C     5.052000000    -4.759000000    -4.910000000
H     6.136000000    -4.843000000    -4.889000000
C     4.244000000    -4.474000000    -3.807000000
O     4.942000000    -4.266000000    -2.584000000
C     5.030000000    -3.171000000    -1.687000000
C     5.500000000    -3.455000000    -0.365000000
H     5.814000000    -4.450000000    -0.059000000
C     5.407000000    -2.471000000     0.602000000
O     5.913000000    -2.781000000     1.891000000
C     5.807000000    -1.991000000     3.027000000
C     4.711000000    -2.243000000     3.857000000
H     4.038000000    -3.038000000     3.545000000
C     6.763000000    -0.978000000     3.351000000
H     7.561000000    -0.687000000     2.673000000
C     6.597000000    -0.298000000     4.525000000
H     7.290000000     0.536000000     4.600000000
C     5.500000000    -0.544000000     5.362000000
H     5.300000000     0.080000000     6.230000000
C     4.531000000    -1.435000000     4.960000000
O     3.403000000    -1.543000000     5.730000000
C     2.261000000    -0.756000000     5.553000000
C     1.101000000    -1.147000000     6.221000000
H     1.046000000    -2.080000000     6.777000000
C    -0.049000000    -0.439000000     5.895000000
O    -1.227000000    -1.004000000     6.302000000
C    -2.457000000    -0.372000000     6.288000000
C    -3.508000000    -0.899000000     5.572000000
H    -3.301000000    -1.830000000     5.051000000
C    -2.608000000     0.796000000     7.090000000
H    -1.739000000     1.204000000     7.599000000
C    -3.852000000     1.469000000     6.983000000
H    -3.980000000     2.457000000     7.418000000
C    -4.894000000     0.885000000     6.172000000
H    -5.791000000     1.463000000     5.965000000
C    -4.700000000    -0.261000000     5.438000000
O    -5.761000000    -0.791000000     4.711000000
C    -5.697000000    -0.765000000     3.259000000
C    -6.141000000    -1.779000000     2.429000000
H    -6.520000000    -2.677000000     2.908000000
C    -5.983000000    -1.717000000     1.058000000
O    -6.485000000    -2.778000000     0.362000000
C    -5.900000000    -3.069000000    -0.851000000
C    -6.645000000    -3.249000000    -2.041000000
H    -7.680000000    -2.919000000    -1.997000000
C    -6.100000000    -3.591000000    -3.240000000
H    -6.677000000    -3.612000000    -4.162000000
C    -4.748000000    -3.837000000    -3.315000000
H    -4.262000000    -4.079000000    -4.257000000
C    -4.061000000    -3.963000000    -2.043000000
C    -4.613000000    -3.478000000    -0.875000000
H    -4.068000000    -3.661000000     0.048000000
O    -3.580000000    -2.916000000     8.384000000
H    -3.493000000    -3.126000000     9.314000000
H    -2.683000000    -2.930000000     8.050000000
O    -2.493000000    -6.936000000     0.013000000
H    -2.258000000    -7.158000000     0.914000000
H    -1.690000000    -6.577000000    -0.363000000
O    -4.401000000    -4.296000000     4.396000000
H    -4.776000000    -4.323000000     3.515000000
H    -3.459000000    -4.203000000     4.252000000
O     2.188000000    -7.212000000     6.040000000
H     1.865000000    -8.069000000     6.319000000
H     2.083000000    -6.654000000     6.810000000
O     0.808000000    -7.502000000     2.027000000
H     1.739000000    -7.310000000     2.144000000
H     0.404000000    -6.648000000     1.877000000
O    -0.236000000    -6.366000000     5.307000000
H     0.687000000    -6.579000000     5.440000000
H    -0.229000000    -5.654000000     4.668000000
O     2.337000000    -5.507000000     3.603000000
H     2.412000000    -5.979000000     4.432000000
H     1.725000000    -4.794000000     3.787000000
O    -5.588000000    -5.086000000     1.846000000
H    -5.259000000    -5.785000000     1.280000000
H    -5.973000000    -4.451000000     1.242000000
O    -1.924000000    -7.247000000     2.909000000
H    -2.170000000    -6.325000000     2.988000000
H    -1.036000000    -7.289000000     3.265000000
O     5.079000000    -6.783000000     3.422000000
H     5.773000000    -6.202000000     3.734000000
H     4.308000000    -6.219000000     3.352000000
O    -0.160000000    -5.937000000     8.475000000
H    -0.477000000    -5.139000000     8.053000000
H    -0.726000000    -6.045000000     9.239000000
O     0.209000000    -6.201000000    -0.841000000
H     0.502000000    -5.295000000    -0.941000000
H     0.514000000    -6.641000000    -1.634000000
O    -3.792000000    -7.358000000     5.573000000
H    -4.034000000    -7.940000000     4.852000000
H    -3.200000000    -6.719000000     5.176000000
O     0.951000000    -3.543000000    -0.867000000
H     1.487000000    -3.744000000    -0.100000000
H     0.524000000    -2.714000000    -0.650000000
O     2.346000000    -3.963000000     1.374000000
H     3.286000000    -3.787000000     1.320000000
H     2.249000000    -4.512000000     2.152000000
O    -1.530000000    -4.408000000     6.666000000
H    -1.092000000    -5.131000000     6.217000000
H    -1.748000000    -3.790000000     5.968000000
O    -1.245000000    -8.674000000     7.313000000
H    -1.162000000    -7.787000000     6.963000000
H    -0.757000000    -8.653000000     8.136000000
O    -4.620000000    -5.514000000     7.456000000
H    -4.384000000    -6.043000000     6.694000000
H    -3.952000000    -4.829000000     7.487000000
O    -6.829000000    -3.502000000     5.372000000
H    -6.038000000    -3.930000000     5.045000000
H    -6.513000000    -2.893000000     6.040000000
