201
-1255.62139
C     4.297000000    -2.455000000     0.126000000
H     4.315000000    -1.571000000     0.757000000
C     3.935000000    -2.384000000    -1.227000000
C     3.736000000    -3.582000000    -1.924000000
H     3.447000000    -3.608000000    -2.971000000
C     3.607000000    -1.038000000    -1.914000000
O     4.584000000    -0.070000000    -1.521000000
H     2.637000000    -0.594000000    -1.648000000
O     3.625000000    -1.121000000    -3.376000000
C     2.515000000    -0.536000000    -4.022000000
C     1.450000000    -1.319000000    -4.136000000
H     1.484000000    -2.384000000    -3.917000000
C     0.186000000    -0.704000000    -4.558000000
O    -0.906000000    -1.475000000    -4.634000000
C     0.148000000     0.632000000    -4.892000000
C    -1.124000000     1.329000000    -5.357000000
H    -0.851000000     2.233000000    -5.905000000
C    -2.013000000     1.784000000    -4.233000000
C    -1.933000000     3.037000000    -3.666000000
H    -1.144000000     3.740000000    -3.922000000
H    -1.630000000     0.528000000    -5.899000000
C     1.277000000     1.463000000    -4.556000000
H     1.301000000     2.535000000    -4.735000000
C     2.515000000     0.879000000    -4.182000000
C     3.618000000     1.727000000    -3.741000000
H     3.615000000     2.653000000    -4.320000000
H     4.556000000     1.214000000    -3.965000000
C     3.635000000     2.104000000    -2.255000000
C     3.112000000     3.368000000    -1.879000000
H     2.709000000     3.981000000    -2.681000000
C     4.177000000     1.258000000    -1.288000000
C     4.140000000     1.663000000     0.031000000
H     4.456000000     0.938000000     0.776000000
C     3.625000000     2.897000000     0.430000000
O     3.429000000     3.082000000     1.780000000
C     2.040000000     2.826000000     2.234000000
C     2.122000000     2.055000000     3.546000000
C     1.094000000     2.184000000     4.461000000
H     0.279000000     2.892000000     4.337000000
C     3.092000000     1.070000000     3.725000000
H     3.835000000     0.928000000     2.944000000
O     1.374000000     4.035000000     2.460000000
H     1.507000000     2.287000000     1.436000000
C     3.099000000     3.749000000    -0.526000000
C     2.406000000     5.032000000    -0.037000000
H     2.534000000     5.689000000    -0.900000000
H     3.012000000     5.445000000     0.772000000
C     0.929000000     4.832000000     0.227000000
C    -0.010000000     4.968000000    -0.769000000
H     0.274000000     5.131000000    -1.805000000
C     0.470000000     4.427000000     1.515000000
C    -0.890000000     4.353000000     1.795000000
H    -1.277000000     4.067000000     2.770000000
C    -1.792000000     4.486000000     0.777000000
O    -3.129000000     4.191000000     1.036000000
C    -3.442000000     2.756000000     0.682000000
C    -4.334000000     2.091000000     1.693000000
C    -4.237000000     2.442000000     3.076000000
H    -3.550000000     3.221000000     3.396000000
C    -5.200000000     1.062000000     1.303000000
H    -5.220000000     0.737000000     0.265000000
O    -4.123000000     2.760000000    -0.659000000
H    -2.568000000     2.105000000     0.533000000
C    -1.364000000     4.783000000    -0.562000000
C    -2.294000000     4.691000000    -1.785000000
H    -1.799000000     5.311000000    -2.535000000
H    -3.237000000     5.214000000    -1.613000000
C    -2.599000000     3.366000000    -2.456000000
C    -3.422000000     2.427000000    -1.866000000
C    -3.659000000     1.229000000    -2.479000000
H    -4.221000000     0.429000000    -2.004000000
C    -2.877000000     0.903000000    -3.566000000
O    -2.873000000    -0.453000000    -3.926000000
C    -1.744000000    -1.269000000    -3.523000000
H    -1.142000000    -0.713000000    -2.789000000
C    -2.092000000    -2.632000000    -2.977000000
C    -1.238000000    -3.768000000    -3.186000000
H    -0.354000000    -3.649000000    -3.808000000
C    -3.277000000    -2.806000000    -2.265000000
H    -3.910000000    -1.926000000    -2.187000000
C    -3.702000000    -3.985000000    -1.781000000
O    -4.827000000    -4.123000000    -0.950000000
C    -2.938000000    -5.088000000    -2.098000000
H    -3.145000000    -6.101000000    -1.763000000
C    -1.632000000    -4.963000000    -2.610000000
O    -0.920000000    -6.100000000    -2.750000000
C     0.361000000    -6.277000000    -3.189000000
C     1.443000000    -5.983000000    -2.381000000
H     1.282000000    -5.686000000    -1.348000000
C     0.588000000    -6.744000000    -4.482000000
H    -0.302000000    -7.010000000    -5.045000000
C     1.917000000    -7.054000000    -4.855000000
H     2.121000000    -7.582000000    -5.783000000
C     2.964000000    -6.768000000    -4.065000000
H     3.982000000    -6.977000000    -4.385000000
C     2.775000000    -6.228000000    -2.757000000
O     3.830000000    -6.040000000    -1.944000000
C     4.079000000    -4.801000000    -1.340000000
C     4.452000000    -4.825000000    -0.006000000
H     4.702000000    -5.688000000     0.604000000
C     4.563000000    -3.646000000     0.681000000
O     4.997000000    -3.741000000     2.001000000
C     5.507000000    -2.669000000     2.728000000
C     4.682000000    -2.014000000     3.684000000
H     3.666000000    -2.379000000     3.808000000
C     6.806000000    -2.267000000     2.666000000
H     7.529000000    -2.729000000     1.999000000
C     7.309000000    -1.099000000     3.331000000
H     8.326000000    -0.747000000     3.177000000
C     6.440000000    -0.460000000     4.193000000
H     6.704000000     0.501000000     4.627000000
C     5.191000000    -0.955000000     4.402000000
O     4.425000000    -0.252000000     5.264000000
C     3.234000000     0.408000000     4.956000000
C     2.166000000     0.526000000     5.872000000
H     2.227000000    -0.083000000     6.770000000
C     1.051000000     1.423000000     5.658000000
O     0.111000000     1.568000000     6.675000000
C    -1.130000000     2.218000000     6.601000000
C    -2.209000000     1.628000000     5.928000000
H    -2.032000000     0.620000000     5.562000000
C    -1.310000000     3.380000000     7.252000000
H    -0.517000000     3.726000000     7.910000000
C    -2.513000000     4.039000000     7.295000000
H    -2.441000000     5.033000000     7.729000000
C    -3.631000000     3.523000000     6.559000000
H    -4.534000000     4.125000000     6.494000000
C    -3.469000000     2.276000000     5.890000000
O    -4.567000000     1.655000000     5.372000000
C    -4.785000000     1.549000000     4.023000000
C    -5.564000000     0.517000000     3.609000000
H    -5.908000000    -0.209000000     4.341000000
C    -5.814000000     0.308000000     2.276000000
O    -6.575000000    -0.758000000     2.029000000
C    -6.603000000    -1.448000000     0.831000000
C    -7.529000000    -1.089000000    -0.146000000
H    -8.283000000    -0.350000000     0.114000000
C    -7.544000000    -1.680000000    -1.434000000
H    -8.295000000    -1.497000000    -2.198000000
C    -6.605000000    -2.681000000    -1.662000000
H    -6.591000000    -3.208000000    -2.613000000
C    -5.664000000    -3.103000000    -0.648000000
C    -5.673000000    -2.431000000     0.579000000
H    -4.933000000    -2.645000000     1.346000000
O    -2.949000000    -4.667000000     1.712000000
H    -2.368000000    -4.170000000     2.288000000
H    -2.361000000    -5.096000000     1.091000000
O     3.228000000    -2.044000000     8.057000000
H     3.304000000    -2.783000000     8.660000000
H     2.366000000    -2.150000000     7.655000000
O    -0.029000000    -8.038000000     3.809000000
H    -0.968000000    -8.144000000     3.660000000
H     0.029000000    -7.538000000     4.623000000
O     0.381000000    -7.301000000     7.847000000
H     0.869000000    -6.782000000     8.486000000
H     0.134000000    -6.674000000     7.168000000
O     0.855000000    -2.642000000     6.556000000
H     0.489000000    -3.510000000     6.386000000
H     0.941000000    -2.245000000     5.689000000
O     2.159000000    -5.029000000     3.859000000
H     1.778000000    -4.151000000     3.870000000
H     2.591000000    -5.092000000     3.007000000
O    -5.942000000    -3.252000000     3.664000000
H    -6.871000000    -3.234000000     3.433000000
H    -5.598000000    -4.022000000     3.211000000
O    -2.682000000    -5.350000000     4.681000000
H    -2.130000000    -4.680000000     4.277000000
H    -3.025000000    -5.855000000     3.943000000
O    -4.776000000    -6.018000000     6.610000000
H    -4.116000000    -5.980000000     5.917000000
H    -5.611000000    -6.046000000     6.144000000
O     3.720000000    -6.795000000     5.253000000
H     3.184000000    -6.132000000     4.818000000
H     3.088000000    -7.354000000     5.706000000
O    -1.239000000    -6.514000000     0.153000000
H    -1.221000000    -6.560000000    -0.802000000
H    -0.319000000    -6.562000000     0.413000000
O    -2.743000000    -7.622000000     2.810000000
H    -2.178000000    -7.167000000     2.186000000
H    -3.092000000    -8.366000000     2.318000000
O    -5.487000000    -1.775000000     6.140000000
H    -5.834000000    -2.439000000     5.545000000
H    -4.539000000    -1.809000000     6.011000000
O     1.271000000    -6.760000000     1.249000000
H     0.887000000    -7.107000000     2.054000000
H     2.096000000    -7.236000000     1.154000000
O     0.349000000    -1.039000000     8.664000000
H     0.490000000    -1.743000000     8.032000000
H     0.542000000    -0.238000000     8.177000000
O     0.199000000    -5.357000000     5.996000000
H     0.739000000    -5.302000000     5.207000000
H    -0.701000000    -5.303000000     5.674000000
O    -5.576000000    -6.038000000     1.609000000
H    -4.743000000    -5.634000000     1.368000000
H    -6.168000000    -5.814000000     0.891000000
O    -2.802000000    -2.701000000     5.732000000
H    -3.066000000    -3.562000000     5.410000000
H    -1.987000000    -2.511000000     5.267000000
O    -3.913000000    -3.754000000     7.986000000
H    -4.005000000    -4.585000000     7.520000000
H    -3.370000000    -3.215000000     7.410000000
