201
-1253.26647
C     4.833000000    -1.498000000     0.799000000
H     4.853000000    -0.518000000     1.270000000
C     4.441000000    -1.641000000    -0.554000000
C     4.315000000    -2.924000000    -1.091000000
H     4.137000000    -3.060000000    -2.155000000
C     4.027000000    -0.421000000    -1.366000000
O     4.922000000     0.757000000    -1.006000000
H     3.026000000    -0.154000000    -0.998000000
O     4.058000000    -0.592000000    -2.814000000
C     2.853000000    -0.155000000    -3.402000000
C     1.814000000    -1.030000000    -3.601000000
H     1.949000000    -2.066000000    -3.300000000
C     0.627000000    -0.587000000    -4.175000000
O    -0.360000000    -1.501000000    -4.390000000
C     0.534000000     0.729000000    -4.639000000
C    -0.711000000     1.216000000    -5.329000000
H    -0.579000000     2.168000000    -5.846000000
C    -1.736000000     1.515000000    -4.318000000
C    -1.900000000     2.780000000    -3.732000000
H    -1.193000000     3.510000000    -4.119000000
H    -1.052000000     0.498000000    -6.078000000
C     1.543000000     1.647000000    -4.379000000
H     1.440000000     2.703000000    -4.614000000
C     2.709000000     1.205000000    -3.796000000
C     3.795000000     2.205000000    -3.409000000
H     3.576000000     3.036000000    -4.083000000
H     4.803000000     1.841000000    -3.616000000
C     3.666000000     2.586000000    -1.900000000
C     2.869000000     3.669000000    -1.613000000
H     2.262000000     4.073000000    -2.419000000
C     4.280000000     1.959000000    -0.842000000
C     4.083000000     2.372000000     0.467000000
H     4.599000000     1.839000000     1.262000000
C     3.243000000     3.473000000     0.740000000
O     2.920000000     3.705000000     2.038000000
C     1.650000000     3.135000000     2.464000000
C     1.694000000     2.395000000     3.764000000
C     0.544000000     1.809000000     4.254000000
H    -0.418000000     2.005000000     3.787000000
C     2.866000000     2.110000000     4.380000000
H     3.810000000     2.388000000     3.919000000
O     0.758000000     4.282000000     2.501000000
H     1.338000000     2.408000000     1.700000000
C     2.691000000     4.162000000    -0.316000000
C     1.762000000     5.316000000    -0.116000000
H     1.776000000     5.901000000    -1.038000000
H     2.082000000     5.912000000     0.741000000
C     0.288000000     4.843000000     0.136000000
C    -0.666000000     4.902000000    -0.946000000
H    -0.237000000     5.043000000    -1.935000000
C    -0.122000000     4.389000000     1.401000000
C    -1.480000000     3.992000000     1.556000000
H    -1.734000000     3.567000000     2.523000000
C    -2.321000000     3.827000000     0.475000000
O    -3.510000000     3.150000000     0.614000000
C    -3.864000000     1.964000000    -0.061000000
C    -4.596000000     1.124000000     0.975000000
C    -4.528000000     1.388000000     2.360000000
H    -3.981000000     2.201000000     2.831000000
C    -5.269000000     0.029000000     0.500000000
H    -5.376000000    -0.217000000    -0.554000000
O    -4.473000000     2.230000000    -1.301000000
H    -2.925000000     1.400000000    -0.165000000
C    -1.931000000     4.368000000    -0.769000000
C    -2.867000000     4.393000000    -1.969000000
H    -2.458000000     5.193000000    -2.590000000
H    -3.872000000     4.655000000    -1.629000000
C    -2.876000000     3.088000000    -2.774000000
C    -3.716000000     2.086000000    -2.445000000
C    -3.587000000     0.830000000    -2.951000000
H    -4.142000000    -0.073000000    -2.709000000
C    -2.695000000     0.532000000    -3.946000000
O    -2.482000000    -0.822000000    -4.212000000
C    -1.399000000    -1.465000000    -3.562000000
H    -1.126000000    -0.892000000    -2.663000000
C    -1.765000000    -2.850000000    -3.137000000
C    -0.747000000    -3.690000000    -2.653000000
H     0.292000000    -3.378000000    -2.591000000
C    -3.128000000    -3.270000000    -2.994000000
H    -3.938000000    -2.593000000    -3.252000000
C    -3.427000000    -4.518000000    -2.474000000
O    -4.748000000    -4.858000000    -2.239000000
C    -2.369000000    -5.422000000    -2.133000000
H    -2.621000000    -6.373000000    -1.673000000
C    -1.026000000    -4.996000000    -2.230000000
O     0.014000000    -5.851000000    -1.778000000
C     1.279000000    -5.921000000    -2.272000000
C     2.299000000    -5.436000000    -1.481000000
H     2.069000000    -5.075000000    -0.482000000
C     1.544000000    -6.386000000    -3.534000000
H     0.782000000    -6.752000000    -4.217000000
C     2.871000000    -6.419000000    -4.055000000
H     2.984000000    -6.741000000    -5.087000000
C     3.916000000    -5.902000000    -3.272000000
H     4.954000000    -6.041000000    -3.561000000
C     3.620000000    -5.511000000    -1.908000000
O     4.687000000    -5.254000000    -1.070000000
C     4.701000000    -4.074000000    -0.374000000
C     5.121000000    -3.941000000     0.908000000
H     5.525000000    -4.817000000     1.410000000
C     5.136000000    -2.676000000     1.553000000
O     5.511000000    -2.630000000     2.870000000
C     5.770000000    -1.483000000     3.555000000
C     4.834000000    -0.947000000     4.452000000
H     3.902000000    -1.503000000     4.502000000
C     6.936000000    -0.717000000     3.380000000
H     7.571000000    -0.996000000     2.543000000
C     7.223000000     0.452000000     4.124000000
H     8.154000000     1.004000000     4.018000000
C     6.276000000     0.899000000     5.011000000
H     6.413000000     1.881000000     5.458000000
C     5.136000000     0.160000000     5.217000000
O     4.170000000     0.792000000     5.947000000
C     2.934000000     1.149000000     5.429000000
C     1.791000000     0.698000000     6.042000000
H     1.862000000     0.031000000     6.897000000
C     0.590000000     1.004000000     5.432000000
O    -0.636000000     0.529000000     5.731000000
C    -1.746000000     1.268000000     5.787000000
C    -2.843000000     0.761000000     5.136000000
H    -2.786000000    -0.181000000     4.596000000
C    -1.787000000     2.423000000     6.589000000
H    -0.932000000     2.732000000     7.185000000
C    -3.011000000     3.115000000     6.537000000
H    -3.139000000     4.023000000     7.120000000
C    -4.128000000     2.671000000     5.828000000
H    -5.102000000     3.152000000     5.860000000
C    -4.046000000     1.397000000     5.210000000
O    -5.169000000     0.857000000     4.571000000
C    -5.154000000     0.508000000     3.270000000
C    -5.830000000    -0.611000000     2.818000000
H    -6.326000000    -1.239000000     3.554000000
C    -5.838000000    -0.897000000     1.439000000
O    -6.665000000    -1.853000000     0.887000000
C    -6.623000000    -2.309000000    -0.473000000
C    -7.692000000    -2.200000000    -1.336000000
H    -8.411000000    -1.522000000    -0.882000000
C    -7.792000000    -2.855000000    -2.477000000
H    -8.538000000    -2.728000000    -3.257000000
C    -6.800000000    -3.744000000    -2.813000000
H    -6.922000000    -4.354000000    -3.705000000
C    -5.739000000    -3.998000000    -1.937000000
C    -5.692000000    -3.292000000    -0.764000000
H    -4.945000000    -3.574000000    -0.026000000
O    -1.931000000    -5.035000000     3.873000000
H    -1.444000000    -4.300000000     4.245000000
H    -1.262000000    -5.690000000     3.673000000
O     3.326000000    -2.969000000     6.529000000
H     3.152000000    -2.964000000     7.470000000
H     2.469000000    -2.833000000     6.126000000
O     2.984000000    -3.994000000     3.398000000
H     3.866000000    -3.627000000     3.467000000
H     2.445000000    -3.428000000     3.950000000
O    -4.657000000    -2.506000000     5.425000000
H    -4.639000000    -1.813000000     6.084000000
H    -4.172000000    -3.229000000     5.823000000
O     2.744000000    -5.977000000     5.811000000
H     2.926000000    -5.572000000     4.963000000
H     2.077000000    -6.637000000     5.622000000
O    -3.014000000    -4.436000000     6.447000000
H    -2.707000000    -4.852000000     5.641000000
H    -2.407000000    -3.710000000     6.589000000
O     3.261000000    -6.501000000     2.179000000
H     4.038000000    -6.677000000     2.709000000
H     2.914000000    -5.681000000     2.528000000
O    -0.076000000    -3.207000000     9.103000000
H    -0.236000000    -3.688000000     8.292000000
H    -0.688000000    -2.472000000     9.071000000
O    -4.285000000    -0.961000000     8.270000000
H    -3.380000000    -1.166000000     8.037000000
H    -4.212000000    -0.286000000     8.945000000
O     1.795000000    -8.246000000     4.748000000
H     1.320000000    -9.049000000     4.960000000
H     2.659000000    -8.547000000     4.465000000
O     2.461000000    -2.603000000     8.967000000
H     1.579000000    -2.942000000     8.812000000
H     2.546000000    -2.586000000     9.920000000
O    -3.758000000    -7.514000000     3.485000000
H    -3.535000000    -6.594000000     3.631000000
H    -3.999000000    -7.558000000     2.560000000
O     0.384000000    -6.433000000     3.301000000
H     1.033000000    -7.060000000     3.618000000
H     0.679000000    -6.207000000     2.419000000
O    -1.824000000    -2.043000000     7.144000000
H    -1.449000000    -2.190000000     6.276000000
H    -1.371000000    -1.266000000     7.472000000
O    -3.375000000    -4.274000000     9.054000000
H    -2.761000000    -4.937000000     9.371000000
H    -3.390000000    -4.396000000     8.104000000
O    -0.803000000    -0.459000000     9.039000000
H     0.069000000    -0.123000000     9.245000000
H    -1.394000000     0.055000000     9.590000000
O    -4.176000000    -3.888000000     3.006000000
H    -4.361000000    -3.355000000     3.779000000
H    -3.338000000    -4.309000000     3.200000000
O     0.575000000    -4.704000000     6.792000000
H     0.250000000    -4.210000000     6.039000000
H     1.499000000    -4.856000000     6.598000000
O    -0.615000000    -7.090000000     7.107000000
H     0.131000000    -7.688000000     7.158000000
H    -0.243000000    -6.271000000     6.779000000
