201
-1249.34750
C     5.057000000    -1.600000000     0.522000000
H     5.110000000    -0.667000000     1.075000000
C     4.571000000    -1.616000000    -0.804000000
C     4.515000000    -2.820000000    -1.465000000
H     4.165000000    -3.004000000    -2.477000000
C     4.077000000    -0.349000000    -1.476000000
O     4.860000000     0.762000000    -1.044000000
H     3.075000000    -0.215000000    -1.042000000
O     4.048000000    -0.481000000    -2.880000000
C     2.925000000     0.024000000    -3.544000000
C     1.947000000    -0.854000000    -3.802000000
H     2.108000000    -1.895000000    -3.535000000
C     0.749000000    -0.387000000    -4.338000000
O    -0.227000000    -1.297000000    -4.507000000
C     0.557000000     0.969000000    -4.665000000
C    -0.681000000     1.508000000    -5.418000000
H    -0.462000000     2.399000000    -6.010000000
C    -1.792000000     1.767000000    -4.429000000
C    -1.819000000     2.998000000    -3.828000000
H    -1.096000000     3.756000000    -4.119000000
H    -0.993000000     0.769000000    -6.159000000
C     1.565000000     1.883000000    -4.196000000
H     1.228000000     2.915000000    -4.241000000
C     2.788000000     1.385000000    -3.725000000
C     3.864000000     2.353000000    -3.235000000
H     3.978000000     3.203000000    -3.911000000
H     4.815000000     1.853000000    -3.431000000
C     3.637000000     2.794000000    -1.827000000
C     2.942000000     3.880000000    -1.512000000
H     2.494000000     4.456000000    -2.318000000
C     4.101000000     1.929000000    -0.794000000
C     3.910000000     2.263000000     0.537000000
H     4.475000000     1.756000000     1.315000000
C     3.256000000     3.467000000     0.815000000
O     2.886000000     3.593000000     2.133000000
C     1.600000000     3.031000000     2.565000000
C     1.754000000     2.241000000     3.857000000
C     0.605000000     1.961000000     4.615000000
H    -0.353000000     2.407000000     4.359000000
C     2.952000000     1.654000000     4.286000000
H     3.867000000     1.898000000     3.752000000
O     0.687000000     4.213000000     2.607000000
H     1.352000000     2.347000000     1.740000000
C     2.700000000     4.266000000    -0.179000000
C     1.789000000     5.394000000     0.285000000
H     1.876000000     6.201000000    -0.444000000
H     2.112000000     5.764000000     1.260000000
C     0.329000000     4.837000000     0.341000000
C    -0.499000000     4.856000000    -0.774000000
H    -0.038000000     5.274000000    -1.665000000
C    -0.147000000     4.276000000     1.526000000
C    -1.405000000     3.681000000     1.554000000
H    -1.781000000     3.235000000     2.471000000
C    -2.209000000     3.844000000     0.483000000
O    -3.426000000     3.298000000     0.621000000
C    -3.805000000     2.068000000    -0.020000000
C    -4.674000000     1.204000000     0.802000000
C    -4.320000000     1.003000000     2.119000000
H    -3.393000000     1.491000000     2.408000000
C    -5.525000000     0.259000000     0.236000000
H    -5.650000000     0.372000000    -0.838000000
O    -4.446000000     2.401000000    -1.291000000
H    -2.860000000     1.538000000    -0.213000000
C    -1.857000000     4.426000000    -0.715000000
C    -2.733000000     4.519000000    -1.957000000
H    -2.319000000     5.281000000    -2.620000000
H    -3.739000000     4.912000000    -1.795000000
C    -2.742000000     3.263000000    -2.784000000
C    -3.642000000     2.256000000    -2.374000000
C    -3.547000000     1.017000000    -3.020000000
H    -4.091000000     0.164000000    -2.623000000
C    -2.709000000     0.774000000    -4.067000000
O    -2.446000000    -0.522000000    -4.428000000
C    -1.403000000    -1.192000000    -3.683000000
H    -1.109000000    -0.429000000    -2.947000000
C    -1.748000000    -2.524000000    -3.041000000
C    -0.780000000    -3.205000000    -2.325000000
H     0.222000000    -2.787000000    -2.277000000
C    -3.080000000    -2.853000000    -2.879000000
H    -3.864000000    -2.283000000    -3.371000000
C    -3.386000000    -4.044000000    -2.206000000
O    -4.711000000    -4.488000000    -2.078000000
C    -2.388000000    -4.862000000    -1.669000000
H    -2.684000000    -5.789000000    -1.183000000
C    -1.063000000    -4.415000000    -1.792000000
O    -0.005000000    -5.070000000    -1.230000000
C     1.099000000    -5.669000000    -1.797000000
C     2.381000000    -5.189000000    -1.397000000
H     2.431000000    -4.477000000    -0.577000000
C     1.071000000    -6.734000000    -2.744000000
H     0.139000000    -7.201000000    -3.053000000
C     2.279000000    -7.118000000    -3.330000000
H     2.284000000    -7.976000000    -3.998000000
C     3.531000000    -6.636000000    -2.896000000
H     4.440000000    -7.058000000    -3.317000000
C     3.574000000    -5.736000000    -1.914000000
O     4.739000000    -5.283000000    -1.378000000
C     4.941000000    -4.032000000    -0.879000000
C     5.297000000    -4.006000000     0.454000000
H     5.621000000    -4.929000000     0.930000000
C     5.341000000    -2.811000000     1.178000000
O     5.759000000    -2.872000000     2.493000000
C     5.942000000    -1.855000000     3.335000000
C     4.884000000    -1.357000000     4.133000000
H     4.009000000    -1.956000000     4.373000000
C     7.199000000    -1.306000000     3.372000000
H     7.942000000    -1.769000000     2.729000000
C     7.480000000    -0.125000000     4.163000000
H     8.468000000     0.326000000     4.196000000
C     6.392000000     0.333000000     5.017000000
H     6.626000000     1.128000000     5.720000000
C     5.101000000    -0.229000000     4.912000000
O     4.115000000     0.200000000     5.838000000
C     2.999000000     0.883000000     5.466000000
C     1.868000000     0.599000000     6.191000000
H     1.889000000    -0.039000000     7.071000000
C     0.642000000     1.150000000     5.761000000
O    -0.500000000     0.765000000     6.461000000
C    -1.726000000     1.186000000     6.117000000
C    -2.548000000     0.315000000     5.387000000
H    -2.134000000    -0.646000000     5.088000000
C    -2.363000000     2.356000000     6.565000000
H    -1.748000000     2.952000000     7.235000000
C    -3.656000000     2.729000000     6.203000000
H    -4.143000000     3.523000000     6.763000000
C    -4.352000000     1.899000000     5.402000000
H    -5.391000000     2.120000000     5.171000000
C    -3.852000000     0.650000000     4.951000000
O    -4.728000000    -0.156000000     4.208000000
C    -5.107000000     0.185000000     2.956000000
C    -6.089000000    -0.542000000     2.349000000
H    -6.633000000    -1.245000000     2.975000000
C    -6.339000000    -0.597000000     1.000000000
O    -7.301000000    -1.426000000     0.482000000
C    -7.040000000    -2.007000000    -0.727000000
C    -7.972000000    -1.930000000    -1.743000000
H    -8.919000000    -1.422000000    -1.577000000
C    -7.751000000    -2.623000000    -2.905000000
H    -8.448000000    -2.552000000    -3.736000000
C    -6.612000000    -3.417000000    -3.015000000
H    -6.466000000    -3.951000000    -3.950000000
C    -5.641000000    -3.452000000    -1.992000000
C    -5.853000000    -2.759000000    -0.824000000
H    -5.140000000    -2.820000000    -0.006000000
O    -2.715000000    -3.874000000     3.733000000
H    -1.972000000    -3.471000000     4.182000000
H    -2.336000000    -4.615000000     3.261000000
O     2.892000000    -4.885000000     8.063000000
H     3.337000000    -4.607000000     8.863000000
H     2.965000000    -4.134000000     7.474000000
O     3.070000000    -2.400000000     6.820000000
H     2.471000000    -2.663000000     6.122000000
H     3.115000000    -1.447000000     6.751000000
O     2.701000000    -4.419000000     2.512000000
H     3.323000000    -4.393000000     3.239000000
H     2.208000000    -3.602000000     2.590000000
O    -4.958000000    -3.401000000     5.403000000
H    -4.541000000    -2.711000000     4.887000000
H    -4.338000000    -4.130000000     5.372000000
O     0.732000000    -5.488000000     4.896000000
H     0.985000000    -4.628000000     4.560000000
H     0.609000000    -6.024000000     4.112000000
O    -3.600000000    -5.603000000     6.677000000
H    -2.806000000    -6.006000000     7.030000000
H    -4.017000000    -6.300000000     6.171000000
O     3.642000000    -6.944000000     1.453000000
H     4.345000000    -7.294000000     2.000000000
H     3.444000000    -6.089000000     1.835000000
O     0.565000000    -2.673000000     9.840000000
H     0.605000000    -3.103000000     8.986000000
H    -0.183000000    -2.079000000     9.775000000
O     0.412000000    -6.435000000     2.559000000
H     0.092000000    -6.816000000     1.741000000
H     1.295000000    -6.131000000     2.353000000
O     5.658000000    -2.125000000     7.922000000
H     6.316000000    -2.275000000     7.244000000
H     4.854000000    -2.500000000     7.562000000
O    -1.618000000    -6.835000000     4.470000000
H    -1.091000000    -7.075000000     3.707000000
H    -1.045000000    -6.272000000     4.989000000
O    -3.063000000    -3.150000000     8.438000000
H    -2.790000000    -3.852000000     7.847000000
H    -2.316000000    -2.552000000     8.461000000
O    -1.168000000    -0.971000000     8.368000000
H    -1.253000000    -0.185000000     8.908000000
H    -0.859000000    -0.647000000     7.522000000
O     1.277000000    -7.050000000     6.968000000
H     1.872000000    -6.560000000     7.535000000
H     1.092000000    -6.453000000     6.242000000
O    -5.210000000    -4.136000000     2.351000000
H    -4.559000000    -3.658000000     2.863000000
H    -4.789000000    -4.972000000     2.148000000
O     4.451000000    -4.756000000     4.887000000
H     5.104000000    -4.194000000     5.303000000
H     3.840000000    -4.974000000     5.591000000
O    -0.047000000    -3.836000000     7.193000000
H    -0.495000000    -3.212000000     6.622000000
H     0.453000000    -4.392000000     6.595000000
O    -1.299000000    -6.315000000     8.075000000
H    -0.605000000    -6.952000000     8.245000000
H    -0.846000000    -5.474000000     8.024000000
