201
-1263.16854
C     4.821000000    -1.674000000     0.582000000
H     5.300000000    -0.709000000     0.721000000
C     4.098000000    -1.918000000    -0.562000000
C     3.444000000    -3.156000000    -0.649000000
H     2.793000000    -3.295000000    -1.509000000
C     3.688000000    -0.875000000    -1.538000000
O     4.572000000     0.257000000    -1.612000000
H     2.711000000    -0.415000000    -1.333000000
O     3.670000000    -1.365000000    -2.909000000
C     2.593000000    -0.924000000    -3.657000000
C     1.629000000    -1.854000000    -3.962000000
H     1.783000000    -2.871000000    -3.611000000
C     0.372000000    -1.427000000    -4.487000000
O    -0.644000000    -2.364000000    -4.509000000
C     0.193000000    -0.092000000    -4.835000000
C    -1.134000000     0.451000000    -5.322000000
H    -0.880000000     1.334000000    -5.912000000
C    -2.152000000     0.841000000    -4.223000000
C    -2.293000000     2.195000000    -3.825000000
H    -1.682000000     2.981000000    -4.260000000
H    -1.620000000    -0.254000000    -6.001000000
C     1.266000000     0.762000000    -4.716000000
H     1.237000000     1.775000000    -5.111000000
C     2.452000000     0.348000000    -4.217000000
C     3.525000000     1.413000000    -4.055000000
H     3.380000000     2.172000000    -4.827000000
H     4.513000000     0.953000000    -3.988000000
C     3.339000000     2.054000000    -2.663000000
C     2.559000000     3.240000000    -2.523000000
H     2.100000000     3.617000000    -3.433000000
C     3.954000000     1.510000000    -1.503000000
C     3.810000000     2.160000000    -0.252000000
H     4.248000000     1.687000000     0.624000000
C     3.026000000     3.267000000    -0.169000000
O     2.862000000     3.783000000     1.107000000
C     1.616000000     3.456000000     1.694000000
C     1.903000000     2.991000000     3.116000000
C     0.881000000     3.230000000     4.067000000
H    -0.021000000     3.723000000     3.713000000
C     3.096000000     2.401000000     3.499000000
H     3.896000000     2.230000000     2.783000000
O     0.760000000     4.617000000     1.686000000
H     1.075000000     2.640000000     1.193000000
C     2.413000000     3.869000000    -1.286000000
C     1.564000000     5.149000000    -1.069000000
H     1.511000000     5.765000000    -1.969000000
H     2.098000000     5.833000000    -0.406000000
C     0.164000000     4.864000000    -0.666000000
C    -0.800000000     4.773000000    -1.702000000
H    -0.555000000     4.957000000    -2.745000000
C    -0.164000000     4.697000000     0.669000000
C    -1.472000000     4.496000000     1.063000000
H    -1.712000000     4.348000000     2.113000000
C    -2.430000000     4.181000000     0.058000000
O    -3.617000000     3.575000000     0.521000000
C    -3.765000000     2.127000000     0.366000000
C    -4.369000000     1.432000000     1.561000000
C    -4.149000000     1.913000000     2.897000000
H    -3.607000000     2.849000000     3.005000000
C    -4.903000000     0.141000000     1.368000000
H    -4.953000000    -0.286000000     0.370000000
O    -4.415000000     1.841000000    -0.872000000
H    -2.731000000     1.756000000     0.316000000
C    -2.120000000     4.394000000    -1.292000000
C    -3.171000000     3.991000000    -2.306000000
H    -3.141000000     4.594000000    -3.216000000
H    -4.159000000     4.206000000    -1.894000000
C    -3.055000000     2.520000000    -2.705000000
C    -3.742000000     1.515000000    -2.082000000
C    -3.576000000     0.209000000    -2.427000000
H    -4.234000000    -0.562000000    -2.034000000
C    -2.851000000    -0.157000000    -3.496000000
O    -2.801000000    -1.563000000    -3.777000000
C    -1.593000000    -2.311000000    -3.407000000
H    -1.180000000    -1.810000000    -2.519000000
C    -1.975000000    -3.711000000    -2.935000000
C    -1.194000000    -4.789000000    -3.226000000
H    -0.278000000    -4.608000000    -3.781000000
C    -3.193000000    -3.921000000    -2.289000000
H    -3.878000000    -3.088000000    -2.160000000
C    -3.427000000    -5.107000000    -1.693000000
O    -4.477000000    -5.283000000    -0.826000000
C    -2.582000000    -6.267000000    -1.982000000
H    -2.721000000    -7.250000000    -1.538000000
C    -1.437000000    -6.054000000    -2.731000000
O    -0.402000000    -7.029000000    -2.819000000
C     0.918000000    -6.747000000    -2.492000000
C     1.230000000    -6.238000000    -1.257000000
H     0.495000000    -6.037000000    -0.482000000
C     1.915000000    -7.145000000    -3.383000000
H     1.686000000    -7.506000000    -4.382000000
C     3.274000000    -6.852000000    -3.025000000
H     4.047000000    -7.089000000    -3.751000000
C     3.574000000    -6.222000000    -1.827000000
H     4.603000000    -5.987000000    -1.568000000
C     2.563000000    -5.933000000    -0.923000000
O     2.896000000    -5.346000000     0.262000000
C     3.552000000    -4.118000000     0.366000000
C     4.377000000    -3.870000000     1.476000000
H     4.649000000    -4.640000000     2.193000000
C     5.013000000    -2.667000000     1.600000000
O     5.762000000    -2.411000000     2.765000000
C     6.028000000    -1.146000000     3.177000000
C     5.133000000    -0.562000000     4.029000000
H     4.370000000    -1.214000000     4.446000000
C     7.063000000    -0.472000000     2.569000000
H     7.629000000    -0.894000000     1.743000000
C     7.296000000     0.823000000     2.982000000
H     8.157000000     1.315000000     2.537000000
C     6.377000000     1.488000000     3.837000000
H     6.453000000     2.546000000     4.074000000
C     5.270000000     0.811000000     4.383000000
O     4.414000000     1.423000000     5.323000000
C     3.340000000     2.107000000     4.825000000
C     2.391000000     2.537000000     5.757000000
H     2.470000000     2.188000000     6.783000000
C     1.114000000     2.977000000     5.386000000
O     0.195000000     3.182000000     6.349000000
C    -1.145000000     3.349000000     6.109000000
C    -2.007000000     2.276000000     5.934000000
H    -1.711000000     1.247000000     6.123000000
C    -1.533000000     4.663000000     5.841000000
H    -0.775000000     5.441000000     5.897000000
C    -2.861000000     4.900000000     5.391000000
H    -3.249000000     5.876000000     5.110000000
C    -3.755000000     3.849000000     5.331000000
H    -4.784000000     4.030000000     5.030000000
C    -3.342000000     2.540000000     5.529000000
O    -4.191000000     1.469000000     5.249000000
C    -4.447000000     1.078000000     3.989000000
C    -5.132000000    -0.125000000     3.827000000
H    -5.215000000    -0.807000000     4.669000000
C    -5.282000000    -0.610000000     2.493000000
O    -5.685000000    -1.853000000     2.412000000
C    -5.929000000    -2.515000000     1.216000000
C    -6.921000000    -2.089000000     0.352000000
H    -7.537000000    -1.260000000     0.692000000
C    -7.082000000    -2.721000000    -0.886000000
H    -7.936000000    -2.416000000    -1.485000000
C    -6.268000000    -3.780000000    -1.275000000
H    -6.497000000    -4.340000000    -2.178000000
C    -5.270000000    -4.212000000    -0.420000000
C    -5.068000000    -3.531000000     0.808000000
H    -4.281000000    -3.915000000     1.453000000
O    -1.676000000    -3.031000000     7.949000000
H    -1.068000000    -2.961000000     7.212000000
H    -2.299000000    -2.318000000     7.814000000
O    -0.813000000    -7.020000000     2.864000000
H    -1.734000000    -7.236000000     2.716000000
H    -0.734000000    -6.108000000     2.585000000
O     0.412000000    -0.484000000     7.014000000
H     1.341000000    -0.672000000     7.143000000
H     0.173000000    -0.980000000     6.231000000
O    -1.815000000    -6.275000000     6.953000000
H    -1.436000000    -6.354000000     7.828000000
H    -1.237000000    -5.664000000     6.495000000
O     1.582000000    -6.408000000     3.917000000
H     1.559000000    -5.528000000     3.541000000
H     0.803000000    -6.839000000     3.567000000
O     3.491000000    -7.777000000     1.794000000
H     3.060000000    -6.957000000     1.552000000
H     3.909000000    -8.075000000     0.986000000
O    -0.744000000    -8.403000000     5.415000000
H    -0.725000000    -7.931000000     4.582000000
H    -1.099000000    -7.772000000     6.040000000
O     1.031000000    -9.248000000     2.406000000
H     0.248000000    -8.726000000     2.578000000
H     1.747000000    -8.612000000     2.401000000
O    -3.459000000    -7.989000000     2.028000000
H    -4.232000000    -8.328000000     2.478000000
H    -3.601000000    -8.211000000     1.107000000
O     5.424000000    -3.060000000     6.662000000
H     5.182000000    -3.033000000     7.588000000
H     4.663000000    -3.445000000     6.227000000
O    -4.784000000    -6.296000000     4.971000000
H    -4.686000000    -7.083000000     5.508000000
H    -3.910000000    -5.906000000     4.958000000
O     4.001000000    -5.952000000     5.506000000
H     3.529000000    -6.438000000     4.829000000
H     3.535000000    -5.119000000     5.572000000
O    -4.493000000    -3.027000000     5.360000000
H    -3.705000000    -3.166000000     4.836000000
H    -4.294000000    -3.431000000     6.204000000
O    -0.038000000    -4.454000000     5.631000000
H     0.253000000    -4.770000000     4.776000000
H     0.746000000    -4.491000000     6.180000000
O     0.236000000    -1.679000000     4.583000000
H    -0.322000000    -1.107000000     4.056000000
H     0.650000000    -2.262000000     3.947000000
O     2.977000000    -3.399000000     5.207000000
H     2.941000000    -2.525000000     5.595000000
H     2.430000000    -3.336000000     4.424000000
O    -2.243000000    -3.723000000     3.777000000
H    -1.565000000    -3.804000000     4.447000000
H    -1.870000000    -4.152000000     3.006000000
O     2.865000000    -1.379000000     7.220000000
H     2.809000000    -2.051000000     7.899000000
H     3.559000000    -0.792000000     7.522000000
O     2.720000000    -6.479000000     7.795000000
H     3.025000000    -6.170000000     6.942000000
H     2.992000000    -7.396000000     7.828000000
