201
-1239.89913
C     5.021000000    -2.215000000    -0.282000000
H     5.686000000    -1.356000000    -0.235000000
C     3.875000000    -2.149000000    -1.078000000
C     2.911000000    -3.171000000    -1.068000000
H     2.027000000    -3.077000000    -1.694000000
C     3.705000000    -0.846000000    -1.896000000
O     4.683000000     0.192000000    -1.790000000
H     2.771000000    -0.430000000    -1.490000000
O     3.442000000    -1.075000000    -3.328000000
C     2.274000000    -0.481000000    -3.865000000
C     1.140000000    -1.302000000    -4.067000000
H     1.183000000    -2.379000000    -3.925000000
C    -0.049000000    -0.711000000    -4.487000000
O    -1.182000000    -1.534000000    -4.543000000
C    -0.059000000     0.635000000    -4.812000000
C    -1.335000000     1.316000000    -5.447000000
H    -1.076000000     2.213000000    -6.013000000
C    -2.153000000     1.709000000    -4.199000000
C    -1.925000000     2.949000000    -3.513000000
H    -1.281000000     3.701000000    -3.961000000
H    -1.894000000     0.628000000    -6.084000000
C     1.108000000     1.414000000    -4.688000000
H     1.183000000     2.455000000    -4.991000000
C     2.263000000     0.875000000    -4.182000000
C     3.453000000     1.783000000    -3.906000000
H     3.367000000     2.653000000    -4.560000000
H     4.414000000     1.287000000    -4.055000000
C     3.655000000     2.296000000    -2.488000000
C     3.127000000     3.511000000    -2.078000000
H     2.564000000     4.156000000    -2.748000000
C     4.275000000     1.485000000    -1.519000000
C     4.594000000     1.962000000    -0.278000000
H     5.010000000     1.265000000     0.446000000
C     4.079000000     3.117000000     0.165000000
O     3.872000000     3.318000000     1.506000000
C     2.605000000     2.944000000     2.044000000
C     2.613000000     2.155000000     3.352000000
C     1.447000000     1.915000000     4.102000000
H     0.555000000     2.388000000     3.700000000
C     3.734000000     1.462000000     3.613000000
H     4.621000000     1.577000000     2.996000000
O     1.833000000     4.094000000     2.284000000
H     2.026000000     2.408000000     1.278000000
C     3.341000000     3.899000000    -0.755000000
C     2.505000000     5.092000000    -0.261000000
H     2.625000000     5.910000000    -0.974000000
H     3.053000000     5.533000000     0.574000000
C     1.060000000     4.706000000     0.139000000
C     0.069000000     4.825000000    -0.831000000
H     0.366000000     5.151000000    -1.825000000
C     0.788000000     4.309000000     1.449000000
C    -0.559000000     3.923000000     1.713000000
H    -0.839000000     3.517000000     2.681000000
C    -1.554000000     4.115000000     0.783000000
O    -2.774000000     3.651000000     1.099000000
C    -3.091000000     2.282000000     0.647000000
C    -3.758000000     1.450000000     1.726000000
C    -3.723000000     1.795000000     3.075000000
H    -3.045000000     2.564000000     3.437000000
C    -4.393000000     0.313000000     1.322000000
H    -4.388000000     0.049000000     0.267000000
O    -3.984000000     2.408000000    -0.461000000
H    -2.133000000     1.828000000     0.353000000
C    -1.251000000     4.435000000    -0.511000000
C    -2.293000000     4.531000000    -1.590000000
H    -2.079000000     5.220000000    -2.410000000
H    -3.083000000     4.969000000    -0.976000000
C    -2.546000000     3.228000000    -2.303000000
C    -3.382000000     2.239000000    -1.760000000
C    -3.666000000     1.109000000    -2.456000000
H    -4.281000000     0.363000000    -1.960000000
C    -3.062000000     0.802000000    -3.692000000
O    -3.191000000    -0.420000000    -4.130000000
C    -2.252000000    -1.364000000    -3.614000000
H    -1.828000000    -1.079000000    -2.640000000
C    -2.900000000    -2.702000000    -3.351000000
C    -2.093000000    -3.863000000    -3.319000000
H    -1.036000000    -3.791000000    -3.564000000
C    -4.294000000    -2.786000000    -3.026000000
H    -4.913000000    -1.895000000    -2.966000000
C    -4.754000000    -4.012000000    -2.536000000
O    -6.040000000    -4.115000000    -2.106000000
C    -3.994000000    -5.141000000    -2.543000000
H    -4.563000000    -6.052000000    -2.375000000
C    -2.659000000    -5.087000000    -2.913000000
O    -1.809000000    -6.254000000    -2.940000000
C    -0.473000000    -6.125000000    -2.747000000
C     0.151000000    -5.686000000    -1.590000000
H    -0.488000000    -5.307000000    -0.796000000
C     0.337000000    -6.445000000    -3.857000000
H    -0.025000000    -6.848000000    -4.799000000
C     1.728000000    -6.369000000    -3.780000000
H     2.391000000    -6.506000000    -4.630000000
C     2.312000000    -5.994000000    -2.529000000
H     3.377000000    -6.076000000    -2.330000000
C     1.525000000    -5.610000000    -1.446000000
O     2.072000000    -5.175000000    -0.247000000
C     2.976000000    -4.173000000    -0.207000000
C     4.112000000    -4.273000000     0.625000000
H     4.081000000    -5.057000000     1.377000000
C     5.036000000    -3.254000000     0.720000000
O     6.096000000    -3.325000000     1.630000000
C     6.446000000    -2.210000000     2.403000000
C     5.501000000    -1.692000000     3.332000000
H     4.537000000    -2.170000000     3.485000000
C     7.580000000    -1.443000000     2.085000000
H     8.304000000    -1.726000000     1.325000000
C     7.828000000    -0.231000000     2.752000000
H     8.657000000     0.335000000     2.336000000
C     6.929000000     0.195000000     3.764000000
H     7.034000000     1.202000000     4.159000000
C     5.780000000    -0.555000000     4.004000000
O     4.982000000    -0.044000000     4.970000000
C     3.811000000     0.637000000     4.720000000
C     2.752000000     0.571000000     5.616000000
H     2.808000000    -0.009000000     6.533000000
C     1.554000000     1.156000000     5.294000000
O     0.574000000     1.120000000     6.284000000
C    -0.626000000     1.750000000     6.366000000
C    -1.780000000     1.155000000     5.847000000
H    -1.719000000     0.207000000     5.320000000
C    -0.756000000     2.934000000     6.973000000
H     0.101000000     3.383000000     7.470000000
C    -1.899000000     3.634000000     7.020000000
H    -1.990000000     4.620000000     7.469000000
C    -3.086000000     3.092000000     6.475000000
H    -4.086000000     3.514000000     6.430000000
C    -3.028000000     1.818000000     5.897000000
O    -4.076000000     1.174000000     5.445000000
C    -4.301000000     0.971000000     4.072000000
C    -5.021000000    -0.177000000     3.659000000
H    -5.397000000    -0.875000000     4.403000000
C    -5.071000000    -0.515000000     2.289000000
O    -5.669000000    -1.747000000     2.040000000
C    -6.381000000    -1.972000000     0.891000000
C    -7.708000000    -1.516000000     0.792000000
H    -8.190000000    -0.851000000     1.505000000
C    -8.420000000    -1.867000000    -0.360000000
H    -9.430000000    -1.493000000    -0.512000000
C    -7.828000000    -2.698000000    -1.317000000
H    -8.416000000    -2.814000000    -2.223000000
C    -6.563000000    -3.204000000    -1.174000000
C    -5.841000000    -2.808000000    -0.026000000
H    -4.933000000    -3.382000000     0.139000000
O    -4.310000000    -3.231000000     4.292000000
H    -4.585000000    -2.634000000     3.596000000
H    -3.466000000    -2.886000000     4.583000000
O    -2.676000000    -8.198000000     3.358000000
H    -2.911000000    -7.291000000     3.161000000
H    -1.852000000    -8.133000000     3.842000000
O    -0.087000000    -5.086000000     8.245000000
H    -0.401000000    -5.103000000     9.149000000
H    -0.388000000    -5.915000000     7.871000000
O     2.641000000    -5.151000000     7.349000000
H     1.791000000    -4.865000000     7.683000000
H     3.012000000    -4.370000000     6.940000000
O     0.035000000    -8.199000000     4.060000000
H     0.155000000    -9.070000000     3.682000000
H     0.512000000    -7.615000000     3.471000000
O    -2.193000000    -0.084000000     9.157000000
H    -2.691000000    -0.710000000     8.630000000
H    -1.863000000     0.553000000     8.524000000
O     1.457000000    -7.700000000     1.487000000
H     1.670000000    -6.768000000     1.534000000
H     1.195000000    -7.841000000     0.577000000
O     0.437000000    -2.512000000     7.546000000
H     0.408000000    -2.529000000     6.590000000
H     0.123000000    -3.377000000     7.811000000
O     2.123000000    -0.563000000     9.135000000
H     1.492000000    -1.057000000     8.612000000
H     1.667000000     0.249000000     9.357000000
O    -3.543000000    -5.546000000     3.104000000
H    -3.966000000    -4.784000000     3.499000000
H    -4.004000000    -5.671000000     2.274000000
O     4.017000000    -5.118000000     4.240000000
H     4.620000000    -5.770000000     3.881000000
H     3.439000000    -5.619000000     4.816000000
O    -2.457000000    -2.119000000     6.946000000
H    -2.439000000    -2.111000000     5.989000000
H    -1.585000000    -2.421000000     7.199000000
O    -1.909000000    -5.548000000     5.325000000
H    -2.774000000    -5.586000000     4.917000000
H    -1.582000000    -4.674000000     5.113000000
O     0.766000000    -5.438000000     3.858000000
H     0.618000000    -4.589000000     4.276000000
H     0.378000000    -6.072000000     4.460000000
O    -0.989000000    -5.598000000     1.908000000
H    -0.326000000    -5.352000000     2.553000000
H    -1.814000000    -5.577000000     2.393000000
O     3.121000000    -2.896000000     5.570000000
H     3.551000000    -3.471000000     4.937000000
H     2.235000000    -2.780000000     5.225000000
O    -0.844000000    -7.828000000     6.661000000
H    -0.221000000    -8.057000000     5.971000000
H    -1.366000000    -7.118000000     6.287000000
O     4.876000000    -1.712000000     7.290000000
H     4.198000000    -2.158000000     6.782000000
H     5.048000000    -2.298000000     8.027000000
O    -4.097000000    -4.581000000     7.189000000
H    -3.647000000    -5.357000000     7.524000000
H    -3.392000000    -3.990000000     6.927000000
