201
-1254.84473
C     5.036000000    -1.541000000    -1.433000000
H     5.550000000    -0.638000000    -1.116000000
C     3.882000000    -1.460000000    -2.266000000
C     3.250000000    -2.679000000    -2.614000000
H     2.350000000    -2.688000000    -3.223000000
C     3.320000000    -0.199000000    -2.829000000
O     4.249000000     0.864000000    -2.921000000
H     2.518000000    -0.050000000    -2.091000000
O     2.681000000    -0.407000000    -4.182000000
C     1.445000000     0.175000000    -4.293000000
C     0.364000000    -0.688000000    -4.310000000
H     0.568000000    -1.746000000    -4.167000000
C    -0.902000000    -0.225000000    -4.539000000
O    -1.988000000    -1.115000000    -4.392000000
C    -1.120000000     1.130000000    -4.649000000
C    -2.496000000     1.842000000    -4.686000000
H    -2.309000000     2.851000000    -5.058000000
C    -3.128000000     2.027000000    -3.345000000
C    -2.858000000     3.106000000    -2.528000000
H    -2.201000000     3.890000000    -2.897000000
H    -3.183000000     1.413000000    -5.418000000
C    -0.009000000     2.015000000    -4.583000000
H    -0.077000000     3.099000000    -4.589000000
C     1.269000000     1.538000000    -4.477000000
C     2.473000000     2.438000000    -4.550000000
H     2.191000000     3.360000000    -5.063000000
H     3.252000000     1.938000000    -5.130000000
C     2.953000000     2.849000000    -3.127000000
C     2.404000000     3.929000000    -2.456000000
H     1.640000000     4.478000000    -2.999000000
C     3.876000000     2.056000000    -2.432000000
C     4.271000000     2.266000000    -1.049000000
H     5.001000000     1.648000000    -0.533000000
C     3.575000000     3.242000000    -0.387000000
O     3.789000000     3.262000000     1.023000000
C     2.680000000     2.760000000     1.832000000
C     3.232000000     1.902000000     2.982000000
C     2.280000000     1.285000000     3.874000000
H     1.212000000     1.485000000     3.862000000
C     4.566000000     1.447000000     3.035000000
H     5.343000000     1.978000000     2.490000000
O     1.814000000     3.839000000     2.315000000
H     2.139000000     2.075000000     1.161000000
C     2.653000000     4.085000000    -1.082000000
C     1.883000000     5.136000000    -0.304000000
H     1.532000000     5.937000000    -0.958000000
H     2.578000000     5.647000000     0.365000000
C     0.625000000     4.603000000     0.376000000
C    -0.601000000     4.806000000    -0.319000000
H    -0.626000000     5.305000000    -1.284000000
C     0.675000000     3.972000000     1.602000000
C    -0.504000000     3.531000000     2.196000000
H    -0.441000000     2.991000000     3.138000000
C    -1.695000000     3.683000000     1.465000000
O    -2.904000000     3.139000000     1.941000000
C    -3.324000000     1.871000000     1.449000000
C    -3.624000000     0.942000000     2.624000000
C    -3.116000000     1.230000000     3.901000000
H    -2.407000000     2.053000000     3.926000000
C    -4.533000000    -0.075000000     2.479000000
H    -5.133000000    -0.221000000     1.584000000
O    -4.500000000     2.059000000     0.539000000
H    -2.493000000     1.407000000     0.897000000
C    -1.779000000     4.402000000     0.282000000
C    -3.141000000     4.504000000    -0.389000000
H    -3.141000000     5.409000000    -1.002000000
H    -3.926000000     4.724000000     0.338000000
C    -3.436000000     3.279000000    -1.279000000
C    -4.233000000     2.221000000    -0.779000000
C    -4.564000000     1.129000000    -1.619000000
H    -5.084000000     0.330000000    -1.095000000
C    -4.018000000     1.033000000    -2.866000000
O    -4.035000000    -0.239000000    -3.468000000
C    -2.855000000    -1.060000000    -3.201000000
H    -2.228000000    -0.571000000    -2.441000000
C    -3.279000000    -2.439000000    -2.666000000
C    -2.349000000    -3.480000000    -2.599000000
H    -1.328000000    -3.318000000    -2.935000000
C    -4.489000000    -2.684000000    -2.005000000
H    -5.166000000    -1.841000000    -1.892000000
C    -4.780000000    -3.939000000    -1.473000000
O    -6.031000000    -4.172000000    -0.948000000
C    -3.931000000    -5.052000000    -1.686000000
H    -4.297000000    -6.029000000    -1.382000000
C    -2.705000000    -4.751000000    -2.233000000
O    -1.745000000    -5.761000000    -2.188000000
C    -0.481000000    -5.711000000    -2.833000000
C     0.724000000    -5.523000000    -2.185000000
H     0.663000000    -5.598000000    -1.102000000
C    -0.560000000    -5.592000000    -4.245000000
H    -1.470000000    -5.772000000    -4.811000000
C     0.606000000    -5.378000000    -4.913000000
H     0.564000000    -5.232000000    -5.989000000
C     1.838000000    -5.245000000    -4.295000000
H     2.713000000    -5.143000000    -4.932000000
C     1.880000000    -5.293000000    -2.888000000
O     3.015000000    -5.119000000    -2.269000000
C     3.695000000    -3.902000000    -2.093000000
C     4.790000000    -3.898000000    -1.271000000
H     4.988000000    -4.857000000    -0.800000000
C     5.452000000    -2.732000000    -0.921000000
O     6.431000000    -2.828000000     0.063000000
C     6.977000000    -1.869000000     0.879000000
C     6.300000000    -1.445000000     2.046000000
H     5.377000000    -1.954000000     2.316000000
C     8.128000000    -1.256000000     0.497000000
H     8.643000000    -1.642000000    -0.379000000
C     8.718000000    -0.234000000     1.233000000
H     9.642000000     0.253000000     0.933000000
C     8.052000000     0.151000000     2.366000000
H     8.507000000     0.917000000     2.989000000
C     6.859000000    -0.388000000     2.814000000
O     6.258000000     0.075000000     3.980000000
C     4.962000000     0.422000000     3.921000000
C     3.998000000    -0.138000000     4.797000000
H     4.212000000    -0.782000000     5.646000000
C     2.691000000     0.408000000     4.847000000
O     1.772000000    -0.123000000     5.685000000
C     0.665000000     0.598000000     6.108000000
C    -0.616000000     0.184000000     5.840000000
H    -0.673000000    -0.659000000     5.157000000
C     0.982000000     1.795000000     6.830000000
H     2.026000000     2.038000000     7.007000000
C    -0.054000000     2.500000000     7.387000000
H     0.164000000     3.388000000     7.974000000
C    -1.352000000     2.089000000     7.206000000
H    -2.106000000     2.741000000     7.640000000
C    -1.673000000     0.997000000     6.404000000
O    -2.941000000     0.538000000     6.208000000
C    -3.371000000     0.321000000     4.963000000
C    -4.248000000    -0.740000000     4.738000000
H    -4.489000000    -1.370000000     5.590000000
C    -4.816000000    -0.907000000     3.491000000
O    -5.642000000    -2.008000000     3.282000000
C    -6.398000000    -2.251000000     2.146000000
C    -7.796000000    -2.210000000     2.257000000
H    -8.239000000    -1.747000000     3.134000000
C    -8.565000000    -2.766000000     1.240000000
H    -9.646000000    -2.799000000     1.348000000
C    -7.939000000    -3.459000000     0.175000000
H    -8.495000000    -3.945000000    -0.623000000
C    -6.589000000    -3.463000000     0.065000000
C    -5.822000000    -2.900000000     1.059000000
H    -4.757000000    -3.116000000     1.080000000
O     4.501000000    -6.918000000     4.061000000
H     4.518000000    -6.266000000     3.361000000
H     4.514000000    -6.404000000     4.868000000
O    -3.289000000    -4.904000000     5.070000000
H    -3.792000000    -4.407000000     5.715000000
H    -2.444000000    -4.455000000     5.028000000
O    -3.258000000    -7.757000000     4.814000000
H    -3.251000000    -6.808000000     4.689000000
H    -2.639000000    -7.908000000     5.529000000
O     2.349000000    -5.529000000     7.810000000
H     2.278000000    -6.300000000     8.373000000
H     2.902000000    -4.923000000     8.302000000
O    -6.061000000    -5.826000000     4.697000000
H    -6.248000000    -6.357000000     5.472000000
H    -5.224000000    -5.406000000     4.891000000
O    -2.995000000    -4.726000000     8.843000000
H    -2.226000000    -4.727000000     9.414000000
H    -2.680000000    -4.354000000     8.019000000
O     5.889000000    -3.839000000     6.862000000
H     6.096000000    -2.912000000     6.747000000
H     5.103000000    -3.977000000     6.334000000
O    -3.824000000    -1.342000000     8.944000000
H    -3.546000000    -1.708000000     8.104000000
H    -3.086000000    -1.503000000     9.532000000
O     2.131000000    -8.008000000     3.233000000
H     1.588000000    -7.419000000     3.756000000
H     3.025000000    -7.842000000     3.534000000
O     1.194000000    -2.687000000     7.127000000
H     1.097000000    -3.014000000     6.233000000
H     1.645000000    -3.392000000     7.592000000
O     3.164000000    -1.171000000     8.083000000
H     2.466000000    -1.484000000     7.507000000
H     2.716000000    -0.937000000     8.896000000
O    -2.241000000    -7.443000000     1.951000000
H    -1.923000000    -7.538000000     2.848000000
H    -3.188000000    -7.337000000     2.042000000
O     4.848000000    -4.898000000     2.232000000
H     5.041000000    -5.602000000     1.612000000
H     4.028000000    -4.519000000     1.916000000
O    -1.809000000    -2.663000000     7.230000000
H    -1.591000000    -2.641000000     6.298000000
H    -0.967000000    -2.566000000     7.675000000
O     0.943000000    -6.271000000     5.513000000
H     1.535000000    -6.092000000     6.244000000
H     0.612000000    -5.411000000     5.256000000
O     2.221000000    -4.585000000     1.968000000
H     1.467000000    -5.067000000     1.628000000
H     1.864000000    -4.053000000     2.680000000
O    -0.166000000    -5.733000000     1.447000000
H    -0.793000000    -6.391000000     1.748000000
H    -0.651000000    -5.215000000     0.805000000
O     3.800000000    -4.122000000     5.095000000
H     4.098000000    -4.493000000     4.265000000
H     2.888000000    -3.878000000     4.936000000
O    -1.107000000    -7.636000000     6.556000000
H    -0.640000000    -8.397000000     6.213000000
H    -0.756000000    -6.896000000     6.062000000
