201
-1235.26945
C     4.221000000    -2.823000000    -0.359000000
H     4.607000000    -1.953000000     0.166000000
C     3.392000000    -2.681000000    -1.484000000
C     2.619000000    -3.734000000    -1.947000000
H     1.883000000    -3.621000000    -2.740000000
C     3.364000000    -1.326000000    -2.106000000
O     4.464000000    -0.454000000    -1.736000000
H     2.428000000    -0.919000000    -1.697000000
O     3.185000000    -1.449000000    -3.532000000
C     2.258000000    -0.646000000    -4.161000000
C     1.034000000    -1.222000000    -4.449000000
H     0.857000000    -2.289000000    -4.340000000
C    -0.084000000    -0.385000000    -4.664000000
O    -1.347000000    -0.912000000    -4.696000000
C     0.029000000     1.032000000    -4.700000000
C    -1.166000000     1.947000000    -4.934000000
H    -0.888000000     2.910000000    -5.368000000
C    -1.988000000     2.316000000    -3.710000000
C    -1.818000000     3.574000000    -3.151000000
H    -1.148000000     4.195000000    -3.741000000
H    -1.870000000     1.614000000    -5.700000000
C     1.341000000     1.548000000    -4.574000000
H     1.531000000     2.618000000    -4.550000000
C     2.422000000     0.756000000    -4.168000000
C     3.757000000     1.420000000    -3.775000000
H     3.966000000     2.305000000    -4.380000000
H     4.589000000     0.744000000    -3.980000000
C     3.760000000     1.762000000    -2.321000000
C     3.365000000     3.027000000    -1.966000000
H     2.938000000     3.689000000    -2.715000000
C     4.228000000     0.857000000    -1.390000000
C     4.309000000     1.240000000    -0.044000000
H     4.688000000     0.583000000     0.734000000
C     4.039000000     2.526000000     0.289000000
O     3.944000000     2.829000000     1.622000000
C     2.603000000     2.679000000     2.199000000
C     2.741000000     1.873000000     3.472000000
C     1.774000000     1.921000000     4.532000000
H     0.966000000     2.640000000     4.642000000
C     3.815000000     0.955000000     3.518000000
H     4.538000000     0.836000000     2.715000000
O     2.007000000     3.940000000     2.532000000
H     1.896000000     2.141000000     1.551000000
C     3.451000000     3.470000000    -0.649000000
C     2.850000000     4.803000000    -0.198000000
H     2.917000000     5.469000000    -1.061000000
H     3.600000000     5.143000000     0.519000000
C     1.403000000     4.683000000     0.264000000
C     0.411000000     4.993000000    -0.660000000
H     0.595000000     5.213000000    -1.708000000
C     1.079000000     4.375000000     1.556000000
C    -0.227000000     4.296000000     1.916000000
H    -0.505000000     4.040000000     2.935000000
C    -1.227000000     4.538000000     0.967000000
O    -2.533000000     4.325000000     1.349000000
C    -3.103000000     3.077000000     0.917000000
C    -3.851000000     2.300000000     1.990000000
C    -3.329000000     2.217000000     3.352000000
H    -2.509000000     2.872000000     3.639000000
C    -4.777000000     1.305000000     1.680000000
H    -5.235000000     1.424000000     0.702000000
O    -3.956000000     3.234000000    -0.231000000
H    -2.274000000     2.413000000     0.628000000
C    -0.919000000     4.911000000    -0.347000000
C    -2.060000000     5.263000000    -1.402000000
H    -1.684000000     5.953000000    -2.162000000
H    -2.861000000     5.758000000    -0.849000000
C    -2.463000000     3.991000000    -2.034000000
C    -3.346000000     3.057000000    -1.398000000
C    -3.531000000     1.784000000    -2.003000000
H    -4.133000000     1.072000000    -1.444000000
C    -2.861000000     1.409000000    -3.130000000
O    -3.110000000     0.129000000    -3.599000000
C    -2.211000000    -0.966000000    -3.511000000
H    -1.629000000    -0.836000000    -2.588000000
C    -2.848000000    -2.315000000    -3.340000000
C    -2.210000000    -3.526000000    -3.594000000
H    -1.310000000    -3.525000000    -4.204000000
C    -3.954000000    -2.389000000    -2.504000000
H    -4.361000000    -1.524000000    -1.987000000
C    -4.628000000    -3.541000000    -2.191000000
O    -5.737000000    -3.581000000    -1.263000000
C    -4.068000000    -4.723000000    -2.623000000
H    -4.643000000    -5.646000000    -2.612000000
C    -2.888000000    -4.725000000    -3.343000000
O    -2.413000000    -5.856000000    -3.869000000
C    -1.056000000    -6.121000000    -3.858000000
C    -0.218000000    -5.904000000    -2.767000000
H    -0.731000000    -5.643000000    -1.845000000
C    -0.436000000    -6.491000000    -5.069000000
H    -1.052000000    -6.573000000    -5.962000000
C     0.946000000    -6.526000000    -5.208000000
H     1.424000000    -6.827000000    -6.137000000
C     1.745000000    -6.464000000    -4.088000000
H     2.794000000    -6.742000000    -4.159000000
C     1.135000000    -6.056000000    -2.832000000
O     1.864000000    -6.076000000    -1.643000000
C     2.690000000    -4.970000000    -1.333000000
C     3.566000000    -5.085000000    -0.205000000
H     3.608000000    -6.077000000     0.238000000
C     4.213000000    -4.017000000     0.387000000
O     4.915000000    -4.209000000     1.563000000
C     5.610000000    -3.268000000     2.262000000
C     4.938000000    -2.349000000     3.067000000
H     3.858000000    -2.389000000     3.180000000
C     6.988000000    -3.216000000     2.143000000
H     7.475000000    -4.000000000     1.570000000
C     7.695000000    -2.332000000     2.847000000
H     8.757000000    -2.246000000     2.631000000
C     7.026000000    -1.419000000     3.715000000
H     7.755000000    -0.857000000     4.292000000
C     5.666000000    -1.507000000     3.902000000
O     4.992000000    -0.735000000     4.843000000
C     3.941000000     0.087000000     4.652000000
C     3.013000000     0.194000000     5.712000000
H     3.189000000    -0.345000000     6.639000000
C     1.929000000     1.056000000     5.644000000
O     1.145000000     1.072000000     6.755000000
C    -0.079000000     1.678000000     6.777000000
C    -1.231000000     1.118000000     6.157000000
H    -1.194000000     0.277000000     5.469000000
C    -0.180000000     2.812000000     7.578000000
H     0.698000000     3.279000000     8.019000000
C    -1.400000000     3.431000000     7.829000000
H    -1.536000000     4.196000000     8.589000000
C    -2.493000000     2.929000000     7.175000000
H    -3.482000000     3.269000000     7.470000000
C    -2.423000000     1.842000000     6.275000000
O    -3.584000000     1.323000000     5.643000000
C    -3.969000000     1.438000000     4.352000000
C    -5.055000000     0.583000000     3.937000000
H    -5.506000000    -0.001000000     4.735000000
C    -5.371000000     0.484000000     2.624000000
O    -6.390000000    -0.379000000     2.298000000
C    -6.598000000    -0.855000000     1.038000000
C    -7.625000000    -0.212000000     0.390000000
H    -8.153000000     0.655000000     0.777000000
C    -8.057000000    -0.709000000    -0.800000000
H    -8.951000000    -0.344000000    -1.298000000
C    -7.470000000    -1.892000000    -1.405000000
H    -8.002000000    -2.466000000    -2.159000000
C    -6.340000000    -2.412000000    -0.795000000
C    -5.932000000    -1.980000000     0.454000000
H    -5.231000000    -2.521000000     1.085000000
O    -4.549000000    -2.950000000     5.656000000
H    -5.255000000    -3.318000000     5.125000000
H    -3.810000000    -2.872000000     5.053000000
O    -2.591000000    -7.394000000     4.312000000
H    -1.731000000    -7.725000000     4.055000000
H    -3.107000000    -7.417000000     3.506000000
O     1.739000000    -1.810000000     9.333000000
H     2.625000000    -2.118000000     9.525000000
H     1.549000000    -2.155000000     8.461000000
O    -4.848000000     0.514000000     8.171000000
H    -4.538000000     0.660000000     7.278000000
H    -4.070000000     0.231000000     8.652000000
O    -0.736000000    -4.992000000     1.812000000
H    -0.820000000    -4.068000000     1.575000000
H    -1.600000000    -5.364000000     1.639000000
O    -3.609000000    -7.560000000     6.901000000
H    -3.933000000    -6.662000000     6.955000000
H    -3.201000000    -7.616000000     6.036000000
O     0.264000000    -5.874000000     7.492000000
H    -0.302000000    -5.505000000     6.814000000
H     0.460000000    -6.759000000     7.184000000
O    -3.731000000    -1.573000000     9.771000000
H    -3.209000000    -2.070000000    10.402000000
H    -3.349000000    -1.790000000     8.921000000
O     0.091000000    -7.241000000     0.565000000
H     1.016000000    -7.486000000     0.574000000
H     0.074000000    -6.355000000     0.927000000
O    -1.481000000    -5.046000000     5.804000000
H    -1.342000000    -4.269000000     5.263000000
H    -1.927000000    -5.664000000     5.224000000
O     0.713000000    -3.263000000     6.884000000
H     0.373000000    -4.117000000     7.149000000
H     0.266000000    -3.072000000     6.060000000
O    -2.666000000    -2.248000000     7.429000000
H    -1.922000000    -2.015000000     6.874000000
H    -3.349000000    -2.515000000     6.815000000
O    -3.383000000    -4.468000000     2.117000000
H    -4.170000000    -4.959000000     2.354000000
H    -3.211000000    -3.910000000     2.876000000
O    -5.890000000    -5.523000000     2.260000000
H    -6.562000000    -6.041000000     1.819000000
H    -6.366000000    -4.779000000     2.631000000
O     1.239000000    -4.671000000     3.678000000
H     0.920000000    -4.953000000     2.820000000
H     0.490000000    -4.230000000     4.079000000
O     2.996000000    -4.538000000     5.887000000
H     2.562000000    -5.027000000     5.188000000
H     2.313000000    -3.966000000     6.238000000
O    -4.968000000    -5.106000000     7.364000000
H    -4.842000000    -4.499000000     6.635000000
H    -5.164000000    -4.544000000     8.113000000
O    -6.839000000    -3.430000000     3.587000000
H    -6.709000000    -2.495000000     3.429000000
H    -7.642000000    -3.476000000     4.105000000
O    -1.692000000    -4.391000000     8.810000000
H    -1.826000000    -3.606000000     8.279000000
H    -1.408000000    -5.058000000     8.185000000
