201
-1246.62194
C     4.564000000    -2.503000000    -1.104000000
H     4.972000000    -1.900000000    -0.297000000
C     3.932000000    -1.942000000    -2.185000000
C     3.274000000    -2.812000000    -3.074000000
H     2.797000000    -2.382000000    -3.951000000
C     3.583000000    -0.499000000    -2.145000000
O     4.611000000     0.224000000    -1.397000000
H     2.623000000    -0.414000000    -1.615000000
O     3.415000000     0.092000000    -3.402000000
C     2.448000000     0.989000000    -3.587000000
C     1.216000000     0.570000000    -4.184000000
H     1.177000000    -0.480000000    -4.465000000
C     0.244000000     1.500000000    -4.395000000
O    -0.972000000     0.987000000    -4.830000000
C     0.425000000     2.773000000    -3.978000000
C    -0.770000000     3.706000000    -3.946000000
H    -0.436000000     4.741000000    -4.044000000
C    -1.637000000     3.494000000    -2.709000000
C    -1.386000000     4.251000000    -1.624000000
H    -0.507000000     4.888000000    -1.574000000
H    -1.280000000     3.558000000    -4.901000000
C     1.628000000     3.219000000    -3.443000000
H     1.713000000     4.235000000    -3.068000000
C     2.658000000     2.336000000    -3.270000000
C     3.942000000     2.709000000    -2.570000000
H     4.018000000     3.770000000    -2.820000000
H     4.816000000     2.244000000    -3.031000000
C     3.927000000     2.487000000    -1.114000000
C     3.356000000     3.397000000    -0.287000000
H     2.979000000     4.307000000    -0.748000000
C     4.313000000     1.256000000    -0.577000000
C     4.246000000     1.098000000     0.771000000
H     4.445000000     0.120000000     1.203000000
C     3.853000000     2.064000000     1.610000000
O     3.759000000     1.743000000     2.969000000
C     2.425000000     1.410000000     3.464000000
C     2.340000000     0.200000000     4.354000000
C     1.375000000     0.052000000     5.277000000
H     0.740000000     0.919000000     5.442000000
C     3.309000000    -0.837000000     4.251000000
H     4.146000000    -0.767000000     3.560000000
O     1.902000000     2.651000000     4.000000000
H     1.865000000     1.243000000     2.532000000
C     3.376000000     3.291000000     1.118000000
C     2.833000000     4.369000000     2.048000000
H     3.009000000     5.385000000     1.689000000
H     3.286000000     4.281000000     3.037000000
C     1.343000000     4.136000000     2.232000000
C     0.388000000     4.723000000     1.503000000
H     0.746000000     5.466000000     0.794000000
C     0.900000000     3.202000000     3.212000000
C    -0.427000000     2.920000000     3.434000000
H    -0.724000000     2.288000000     4.267000000
C    -1.417000000     3.496000000     2.650000000
O    -2.685000000     2.960000000     2.652000000
C    -3.073000000     2.041000000     1.620000000
C    -3.917000000     0.966000000     2.229000000
C    -3.645000000     0.521000000     3.505000000
H    -2.977000000     1.001000000     4.215000000
C    -4.850000000     0.259000000     1.481000000
H    -5.053000000     0.526000000     0.446000000
O    -3.886000000     2.753000000     0.629000000
H    -2.159000000     1.708000000     1.105000000
C    -0.993000000     4.449000000     1.674000000
C    -1.990000000     5.024000000     0.694000000
H    -1.632000000     6.010000000     0.391000000
H    -2.892000000     5.333000000     1.225000000
C    -2.205000000     4.149000000    -0.514000000
C    -3.227000000     3.225000000    -0.506000000
C    -3.485000000     2.484000000    -1.632000000
H    -4.157000000     1.630000000    -1.641000000
C    -2.664000000     2.566000000    -2.737000000
O    -2.833000000     1.658000000    -3.774000000
C    -1.894000000     0.601000000    -3.908000000
H    -1.496000000     0.327000000    -2.920000000
C    -2.596000000    -0.703000000    -4.276000000
C    -1.870000000    -1.576000000    -5.106000000
H    -0.933000000    -1.287000000    -5.577000000
C    -3.839000000    -1.002000000    -3.805000000
H    -4.239000000    -0.225000000    -3.158000000
C    -4.350000000    -2.277000000    -4.076000000
O    -5.612000000    -2.590000000    -3.551000000
C    -3.660000000    -3.226000000    -4.755000000
H    -4.084000000    -4.200000000    -4.989000000
C    -2.346000000    -2.896000000    -5.224000000
O    -1.663000000    -3.929000000    -5.875000000
C    -0.296000000    -3.976000000    -5.893000000
C     0.358000000    -4.362000000    -4.745000000
H    -0.180000000    -4.624000000    -3.838000000
C     0.409000000    -3.609000000    -7.055000000
H    -0.073000000    -3.245000000    -7.959000000
C     1.823000000    -3.717000000    -7.087000000
H     2.390000000    -3.458000000    -7.978000000
C     2.467000000    -4.148000000    -5.917000000
H     3.546000000    -4.263000000    -5.858000000
C     1.773000000    -4.484000000    -4.782000000
O     2.463000000    -4.908000000    -3.642000000
C     3.328000000    -4.156000000    -2.916000000
C     4.011000000    -4.729000000    -1.883000000
H     4.082000000    -5.810000000    -1.786000000
C     4.523000000    -3.875000000    -0.885000000
O     5.080000000    -4.503000000     0.244000000
C     5.420000000    -3.839000000     1.398000000
C     4.529000000    -3.720000000     2.393000000
H     3.478000000    -3.954000000     2.246000000
C     6.759000000    -3.568000000     1.578000000
H     7.539000000    -3.853000000     0.876000000
C     7.114000000    -2.861000000     2.773000000
H     8.118000000    -2.606000000     3.102000000
C     6.176000000    -2.740000000     3.763000000
H     6.409000000    -2.286000000     4.722000000
C     4.922000000    -3.215000000     3.604000000
O     4.039000000    -3.158000000     4.726000000
C     3.200000000    -2.072000000     4.962000000
C     2.194000000    -2.194000000     5.868000000
H     2.125000000    -3.115000000     6.443000000
C     1.299000000    -1.114000000     6.061000000
O     0.338000000    -1.266000000     7.069000000
C    -0.934000000    -0.715000000     7.075000000
C    -1.905000000    -1.174000000     6.148000000
H    -1.617000000    -1.878000000     5.371000000
C    -1.256000000     0.328000000     7.985000000
H    -0.503000000     0.704000000     8.673000000
C    -2.508000000     0.925000000     7.950000000
H    -2.843000000     1.797000000     8.505000000
C    -3.474000000     0.330000000     7.060000000
H    -4.486000000     0.726000000     7.036000000
C    -3.163000000    -0.606000000     6.153000000
O    -4.177000000    -1.037000000     5.299000000
C    -4.393000000    -0.571000000     4.009000000
C    -5.421000000    -1.148000000     3.251000000
H    -6.040000000    -1.945000000     3.656000000
C    -5.637000000    -0.763000000     1.984000000
O    -6.510000000    -1.497000000     1.202000000
C    -6.802000000    -1.382000000    -0.142000000
C    -7.598000000    -0.305000000    -0.559000000
H    -8.150000000     0.366000000     0.094000000
C    -7.705000000     0.027000000    -1.938000000
H    -8.187000000     0.919000000    -2.329000000
C    -7.090000000    -0.776000000    -2.876000000
H    -7.226000000    -0.371000000    -3.876000000
C    -6.276000000    -1.927000000    -2.513000000
C    -6.222000000    -2.167000000    -1.134000000
H    -5.633000000    -2.959000000    -0.678000000
O    -4.199000000    -5.051000000     1.684000000
H    -3.926000000    -4.865000000     0.786000000
H    -3.545000000    -4.614000000     2.229000000
O    -2.414000000    -6.585000000     4.085000000
H    -2.348000000    -5.727000000     4.503000000
H    -1.861000000    -6.516000000     3.307000000
O    -2.062000000    -3.992000000     7.821000000
H    -2.717000000    -4.156000000     7.143000000
H    -2.446000000    -4.358000000     8.618000000
O     3.718000000    -6.642000000     4.098000000
H     3.290000000    -6.717000000     3.245000000
H     3.066000000    -6.216000000     4.656000000
O    -3.419000000    -7.441000000     6.770000000
H    -3.040000000    -6.929000000     6.056000000
H    -4.157000000    -7.900000000     6.369000000
O     2.992000000    -5.465000000     7.025000000
H     3.146000000    -6.302000000     7.463000000
H     2.063000000    -5.482000000     6.795000000
O    -5.977000000    -3.957000000     4.971000000
H    -6.618000000    -3.369000000     5.370000000
H    -6.419000000    -4.806000000     4.938000000
O    -1.518000000    -2.466000000    -1.886000000
H    -0.838000000    -3.138000000    -1.844000000
H    -1.356000000    -1.913000000    -1.122000000
O    -3.400000000    -4.414000000    -0.704000000
H    -3.103000000    -3.677000000    -1.238000000
H    -4.073000000    -4.839000000    -1.236000000
O     0.267000000    -4.606000000     6.256000000
H     0.098000000    -4.517000000     5.318000000
H    -0.504000000    -4.223000000     6.675000000
O    -3.457000000    -4.378000000     5.411000000
H    -3.007000000    -4.278000000     4.572000000
H    -4.367000000    -4.148000000     5.224000000
O    -5.170000000    -7.474000000     0.782000000
H    -4.858000000    -6.686000000     1.228000000
H    -5.413000000    -7.173000000    -0.093000000
O     1.055000000    -8.116000000     5.818000000
H     0.254000000    -7.621000000     5.644000000
H     0.813000000    -9.028000000     5.658000000
O     1.077000000    -5.696000000     1.855000000
H     0.782000000    -5.119000000     1.151000000
H     0.644000000    -5.358000000     2.639000000
O    -5.120000000    -7.570000000     4.505000000
H    -4.253000000    -7.164000000     4.481000000
H    -5.071000000    -8.279000000     3.865000000
O    -0.467000000    -4.581000000    -0.284000000
H    -1.287000000    -4.434000000     0.187000000
H    -0.635000000    -5.355000000    -0.822000000
O    -6.741000000    -4.904000000     2.004000000
H    -5.805000000    -5.097000000     1.947000000
H    -6.788000000    -4.088000000     2.502000000
O    -1.058000000    -7.271000000     1.113000000
H    -0.458000000    -6.597000000     1.433000000
H    -1.019000000    -7.193000000     0.160000000
O    -1.641000000    -9.210000000     4.463000000
H    -2.020000000    -9.407000000     3.607000000
H    -2.081000000    -8.407000000     4.741000000
