201
-1253.85641
C     5.386000000    -1.339000000    -0.310000000
H     5.616000000    -0.681000000     0.524000000
C     4.705000000    -0.898000000    -1.426000000
C     4.381000000    -1.815000000    -2.425000000
H     3.773000000    -1.479000000    -3.262000000
C     4.120000000     0.555000000    -1.487000000
O     4.996000000     1.479000000    -0.858000000
H     3.148000000     0.478000000    -0.977000000
O     3.946000000     0.910000000    -2.870000000
C     2.836000000     1.563000000    -3.288000000
C     1.818000000     0.877000000    -3.973000000
H     1.945000000    -0.156000000    -4.288000000
C     0.628000000     1.543000000    -4.137000000
O    -0.382000000     0.835000000    -4.733000000
C     0.478000000     2.869000000    -3.873000000
C    -0.820000000     3.665000000    -4.118000000
H    -0.588000000     4.731000000    -4.062000000
C    -1.885000000     3.295000000    -3.057000000
C    -1.981000000     4.150000000    -1.905000000
H    -1.383000000     5.052000000    -1.806000000
H    -1.275000000     3.423000000    -5.080000000
C     1.431000000     3.509000000    -3.139000000
H     1.333000000     4.547000000    -2.832000000
C     2.541000000     2.853000000    -2.770000000
C     3.589000000     3.691000000    -2.000000000
H     3.298000000     4.724000000    -2.202000000
H     4.559000000     3.515000000    -2.471000000
C     3.619000000     3.394000000    -0.574000000
C     2.882000000     4.216000000     0.263000000
H     2.375000000     5.108000000    -0.094000000
C     4.238000000     2.289000000    -0.045000000
C     4.122000000     1.968000000     1.373000000
H     4.741000000     1.145000000     1.722000000
C     3.281000000     2.659000000     2.139000000
O     2.907000000     2.172000000     3.400000000
C     1.627000000     1.448000000     3.496000000
C     1.750000000     0.224000000     4.367000000
C     0.638000000    -0.293000000     4.997000000
H    -0.297000000     0.217000000     4.779000000
C     2.955000000    -0.441000000     4.526000000
H     3.841000000    -0.050000000     4.032000000
O     0.628000000     2.367000000     4.027000000
H     1.320000000     1.142000000     2.485000000
C     2.657000000     3.823000000     1.644000000
C     1.678000000     4.563000000     2.513000000
H     1.704000000     5.632000000     2.294000000
H     2.027000000     4.635000000     3.545000000
C     0.284000000     4.034000000     2.366000000
C    -0.611000000     4.527000000     1.366000000
H    -0.221000000     5.279000000     0.685000000
C    -0.135000000     3.004000000     3.158000000
C    -1.432000000     2.463000000     3.064000000
H    -1.702000000     1.638000000     3.719000000
C    -2.312000000     2.994000000     2.134000000
O    -3.554000000     2.384000000     2.186000000
C    -3.889000000     1.508000000     1.073000000
C    -4.692000000     0.304000000     1.497000000
C    -4.629000000    -0.109000000     2.838000000
H    -4.155000000     0.533000000     3.577000000
C    -5.419000000    -0.561000000     0.620000000
H    -5.376000000    -0.293000000    -0.433000000
O    -4.582000000     2.187000000    -0.010000000
H    -2.938000000     1.078000000     0.726000000
C    -1.888000000     4.031000000     1.335000000
C    -2.952000000     4.565000000     0.366000000
H    -2.664000000     5.588000000     0.115000000
H    -3.945000000     4.571000000     0.820000000
C    -2.878000000     3.733000000    -0.884000000
C    -3.730000000     2.660000000    -1.030000000
C    -3.563000000     1.872000000    -2.153000000
H    -4.052000000     0.905000000    -2.239000000
C    -2.702000000     2.162000000    -3.198000000
O    -2.555000000     1.246000000    -4.158000000
C    -1.491000000     0.355000000    -3.938000000
H    -1.283000000     0.298000000    -2.859000000
C    -1.903000000    -1.075000000    -4.254000000
C    -0.866000000    -2.056000000    -4.169000000
H     0.148000000    -1.714000000    -3.977000000
C    -3.234000000    -1.455000000    -4.314000000
H    -4.034000000    -0.719000000    -4.295000000
C    -3.461000000    -2.827000000    -4.293000000
O    -4.754000000    -3.277000000    -4.148000000
C    -2.448000000    -3.730000000    -4.454000000
H    -2.697000000    -4.788000000    -4.437000000
C    -1.110000000    -3.389000000    -4.426000000
O    -0.114000000    -4.381000000    -4.287000000
C     1.195000000    -4.205000000    -4.690000000
C     2.288000000    -4.246000000    -3.813000000
H     2.159000000    -4.594000000    -2.791000000
C     1.363000000    -3.884000000    -6.001000000
H     0.472000000    -3.994000000    -6.614000000
C     2.606000000    -3.486000000    -6.466000000
H     2.795000000    -3.351000000    -7.528000000
C     3.728000000    -3.530000000    -5.649000000
H     4.729000000    -3.276000000    -5.988000000
C     3.540000000    -3.985000000    -4.327000000
O     4.619000000    -4.007000000    -3.517000000
C     4.793000000    -3.126000000    -2.403000000
C     5.395000000    -3.582000000    -1.267000000
H     5.719000000    -4.616000000    -1.180000000
C     5.724000000    -2.692000000    -0.261000000
O     6.348000000    -3.269000000     0.884000000
C     6.249000000    -2.666000000     2.117000000
C     5.228000000    -2.900000000     2.992000000
H     4.402000000    -3.451000000     2.549000000
C     7.378000000    -1.940000000     2.481000000
H     8.197000000    -1.729000000     1.799000000
C     7.473000000    -1.301000000     3.779000000
H     8.270000000    -0.578000000     3.933000000
C     6.362000000    -1.492000000     4.656000000
H     6.297000000    -1.089000000     5.663000000
C     5.276000000    -2.283000000     4.242000000
O     4.204000000    -2.509000000     5.101000000
C     3.025000000    -1.704000000     5.173000000
C     1.822000000    -2.181000000     5.765000000
H     1.852000000    -3.118000000     6.315000000
C     0.664000000    -1.427000000     5.762000000
O    -0.502000000    -2.075000000     6.331000000
C    -1.736000000    -1.509000000     6.356000000
C    -2.823000000    -1.972000000     5.569000000
H    -2.703000000    -2.824000000     4.904000000
C    -1.955000000    -0.317000000     7.092000000
H    -1.214000000     0.109000000     7.764000000
C    -3.151000000     0.406000000     6.983000000
H    -3.352000000     1.338000000     7.505000000
C    -4.154000000    -0.025000000     6.112000000
H    -5.176000000     0.342000000     6.143000000
C    -4.031000000    -1.232000000     5.460000000
O    -5.067000000    -1.638000000     4.629000000
C    -5.035000000    -1.377000000     3.268000000
C    -5.691000000    -2.230000000     2.381000000
H    -6.164000000    -3.145000000     2.729000000
C    -6.007000000    -1.759000000     1.058000000
O    -6.694000000    -2.573000000     0.203000000
C    -6.805000000    -2.373000000    -1.194000000
C    -7.897000000    -1.751000000    -1.802000000
H    -8.696000000    -1.284000000    -1.232000000
C    -7.925000000    -1.563000000    -3.176000000
H    -8.715000000    -0.950000000    -3.601000000
C    -6.874000000    -2.035000000    -3.955000000
H    -6.829000000    -1.871000000    -5.029000000
C    -5.744000000    -2.683000000    -3.404000000
C    -5.723000000    -2.908000000    -1.976000000
H    -4.923000000    -3.504000000    -1.545000000
O    -4.058000000    -5.506000000     0.044000000
H    -3.418000000    -5.268000000    -0.627000000
H    -3.672000000    -5.198000000     0.864000000
O    -1.730000000    -7.416000000     4.150000000
H    -1.224000000    -6.700000000     3.764000000
H    -2.640000000    -7.126000000     4.089000000
O     0.797000000    -8.399000000     3.629000000
H    -0.126000000    -8.629000000     3.520000000
H     0.815000000    -7.844000000     4.408000000
O     0.213000000    -4.468000000     7.868000000
H    -0.248000000    -3.729000000     7.473000000
H     0.341000000    -4.209000000     8.781000000
O     3.110000000    -5.903000000     3.125000000
H     2.651000000    -5.434000000     3.822000000
H     2.532000000    -5.829000000     2.366000000
O    -2.554000000    -9.986000000     2.346000000
H    -2.947000000    -9.331000000     1.769000000
H    -2.947000000    -9.817000000     3.202000000
O    -3.854000000    -4.110000000     8.096000000
H    -3.278000000    -4.424000000     7.399000000
H    -3.307000000    -3.516000000     8.609000000
O     0.624000000    -3.775000000    -0.867000000
H     0.985000000    -4.431000000    -0.272000000
H     0.153000000    -3.168000000    -0.297000000
O    -6.640000000    -4.909000000     4.252000000
H    -7.246000000    -5.137000000     3.547000000
H    -7.127000000    -4.289000000     4.795000000
O    -1.857000000    -5.150000000    -1.718000000
H    -1.023000000    -4.829000000    -1.376000000
H    -1.671000000    -5.377000000    -2.629000000
O     0.697000000    -5.478000000     5.241000000
H    -0.006000000    -5.271000000     4.626000000
H     0.262000000    -5.533000000     6.092000000
O     0.150000000    -7.661000000     0.328000000
H    -0.468000000    -8.188000000    -0.179000000
H     0.764000000    -8.297000000     0.694000000
O    -6.801000000    -5.715000000     1.138000000
H    -6.694000000    -6.387000000     1.811000000
H    -5.956000000    -5.690000000     0.689000000
O    -2.497000000    -5.017000000     5.943000000
H    -2.985000000    -5.402000000     5.215000000
H    -1.699000000    -4.675000000     5.542000000
O     0.969000000    -5.302000000     1.497000000
H     0.712000000    -6.091000000     1.019000000
H     0.392000000    -5.285000000     2.260000000
O    -4.194000000    -5.896000000     3.948000000
H    -3.857000000    -5.546000000     3.123000000
H    -4.963000000    -5.359000000     4.139000000
O     3.161000000    -5.915000000     6.314000000
H     2.469000000    -5.434000000     5.861000000
H     2.906000000    -6.834000000     6.234000000
O    -3.670000000    -8.048000000     0.721000000
H    -2.894000000    -8.095000000     0.162000000
H    -3.831000000    -7.111000000     0.828000000
O    -1.912000000    -8.149000000     6.876000000
H    -1.831000000    -8.161000000     5.922000000
H    -2.299000000    -7.296000000     7.073000000
