201
-1257.11784
C     5.157000000    -0.684000000    -1.420000000
H     5.212000000    -0.096000000    -0.507000000
C     4.540000000    -0.103000000    -2.531000000
C     4.434000000    -0.935000000    -3.669000000
H     3.938000000    -0.472000000    -4.518000000
C     3.756000000     1.203000000    -2.345000000
O     4.456000000     2.148000000    -1.494000000
H     2.857000000     0.912000000    -1.783000000
O     3.362000000     1.757000000    -3.642000000
C     2.087000000     2.323000000    -3.757000000
C     1.138000000     1.380000000    -4.212000000
H     1.560000000     0.393000000    -4.387000000
C    -0.194000000     1.762000000    -4.191000000
O    -1.088000000     0.753000000    -4.533000000
C    -0.589000000     3.074000000    -3.753000000
C    -2.005000000     3.539000000    -3.844000000
H    -1.938000000     4.627000000    -3.788000000
C    -2.744000000     2.966000000    -2.620000000
C    -2.783000000     3.642000000    -1.414000000
H    -2.198000000     4.558000000    -1.427000000
H    -2.464000000     3.213000000    -4.779000000
C     0.425000000     3.910000000    -3.244000000
H     0.180000000     4.927000000    -2.952000000
C     1.762000000     3.576000000    -3.268000000
C     2.780000000     4.369000000    -2.504000000
H     2.538000000     5.432000000    -2.455000000
H     3.739000000     4.367000000    -3.027000000
C     2.907000000     3.924000000    -1.082000000
C     2.104000000     4.587000000    -0.093000000
H     1.417000000     5.379000000    -0.381000000
C     3.769000000     2.894000000    -0.625000000
C     3.710000000     2.491000000     0.686000000
H     4.285000000     1.584000000     0.855000000
C     2.938000000     3.153000000     1.655000000
O     2.791000000     2.657000000     2.939000000
C     1.733000000     1.745000000     3.280000000
C     2.182000000     0.534000000     4.058000000
C     1.204000000    -0.158000000     4.701000000
H     0.177000000     0.168000000     4.845000000
C     3.484000000     0.026000000     3.926000000
H     4.252000000     0.512000000     3.329000000
O     0.843000000     2.544000000     4.079000000
H     1.247000000     1.455000000     2.337000000
C     2.161000000     4.224000000     1.262000000
C     1.222000000     4.868000000     2.298000000
H     0.970000000     5.874000000     1.957000000
H     1.620000000     4.941000000     3.313000000
C    -0.109000000     4.128000000     2.490000000
C    -1.291000000     4.524000000     1.775000000
H    -1.277000000     5.328000000     1.044000000
C    -0.220000000     3.125000000     3.446000000
C    -1.415000000     2.414000000     3.567000000
H    -1.544000000     1.522000000     4.174000000
C    -2.522000000     2.748000000     2.760000000
O    -3.571000000     1.901000000     2.759000000
C    -3.844000000     0.899000000     1.760000000
C    -4.424000000    -0.371000000     2.422000000
C    -4.168000000    -0.633000000     3.766000000
H    -3.745000000     0.120000000     4.426000000
C    -5.100000000    -1.283000000     1.628000000
H    -5.274000000    -0.993000000     0.595000000
O    -4.673000000     1.400000000     0.691000000
H    -2.839000000     0.655000000     1.387000000
C    -2.424000000     3.775000000     1.839000000
C    -3.501000000     4.104000000     0.868000000
H    -3.466000000     5.140000000     0.524000000
H    -4.443000000     4.040000000     1.418000000
C    -3.437000000     3.211000000    -0.324000000
C    -4.122000000     2.018000000    -0.407000000
C    -4.098000000     1.241000000    -1.576000000
H    -4.681000000     0.327000000    -1.656000000
C    -3.475000000     1.756000000    -2.726000000
O    -3.187000000     0.897000000    -3.717000000
C    -1.958000000     0.227000000    -3.585000000
H    -1.603000000     0.501000000    -2.580000000
C    -2.017000000    -1.318000000    -3.583000000
C    -0.878000000    -2.037000000    -3.986000000
H     0.006000000    -1.484000000    -4.294000000
C    -3.138000000    -2.001000000    -3.194000000
H    -3.994000000    -1.459000000    -2.802000000
C    -3.166000000    -3.410000000    -3.251000000
O    -4.399000000    -4.081000000    -3.008000000
C    -2.084000000    -4.153000000    -3.734000000
H    -2.177000000    -5.226000000    -3.881000000
C    -0.985000000    -3.431000000    -4.097000000
O     0.193000000    -4.072000000    -4.521000000
C     1.282000000    -3.716000000    -5.298000000
C     2.538000000    -3.568000000    -4.735000000
H     2.543000000    -3.798000000    -3.672000000
C     1.229000000    -3.471000000    -6.675000000
H     0.243000000    -3.543000000    -7.128000000
C     2.271000000    -3.127000000    -7.431000000
H     2.184000000    -2.927000000    -8.496000000
C     3.491000000    -2.870000000    -6.846000000
H     4.368000000    -2.540000000    -7.396000000
C     3.614000000    -3.032000000    -5.441000000
O     4.860000000    -2.971000000    -4.867000000
C     4.997000000    -2.157000000    -3.742000000
C     5.642000000    -2.628000000    -2.635000000
H     6.200000000    -3.558000000    -2.708000000
C     5.657000000    -1.909000000    -1.413000000
O     6.168000000    -2.500000000    -0.228000000
C     6.444000000    -2.037000000     1.037000000
C     5.519000000    -2.118000000     2.090000000
H     4.604000000    -2.666000000     1.879000000
C     7.639000000    -1.341000000     1.301000000
H     8.350000000    -1.179000000     0.494000000
C     7.913000000    -0.731000000     2.510000000
H     8.772000000    -0.064000000     2.533000000
C     7.022000000    -0.829000000     3.551000000
H     7.213000000    -0.432000000     4.545000000
C     5.866000000    -1.524000000     3.339000000
O     5.065000000    -1.685000000     4.437000000
C     3.792000000    -1.190000000     4.555000000
C     2.850000000    -1.980000000     5.147000000
H     3.130000000    -2.937000000     5.580000000
C     1.526000000    -1.454000000     5.212000000
O     0.546000000    -2.295000000     5.706000000
C    -0.642000000    -1.929000000     6.268000000
C    -1.867000000    -2.372000000     5.724000000
H    -1.906000000    -2.871000000     4.760000000
C    -0.679000000    -1.238000000     7.476000000
H     0.262000000    -0.916000000     7.916000000
C    -1.894000000    -0.960000000     8.145000000
H    -1.866000000    -0.530000000     9.144000000
C    -3.049000000    -1.337000000     7.505000000
H    -4.041000000    -1.067000000     7.856000000
C    -3.075000000    -1.968000000     6.317000000
O    -4.330000000    -2.155000000     5.675000000
C    -4.601000000    -1.831000000     4.335000000
C    -5.314000000    -2.742000000     3.522000000
H    -5.561000000    -3.715000000     3.941000000
C    -5.540000000    -2.435000000     2.163000000
O    -6.203000000    -3.345000000     1.479000000
C    -6.344000000    -3.197000000     0.017000000
C    -7.561000000    -2.871000000    -0.572000000
H    -8.457000000    -2.573000000    -0.035000000
C    -7.764000000    -2.881000000    -1.967000000
H    -8.728000000    -2.644000000    -2.409000000
C    -6.666000000    -3.242000000    -2.791000000
H    -6.669000000    -3.418000000    -3.864000000
C    -5.454000000    -3.599000000    -2.190000000
C    -5.253000000    -3.561000000    -0.817000000
H    -4.268000000    -3.882000000    -0.487000000
O    -2.055000000    -6.084000000     0.198000000
H    -1.523000000    -5.760000000    -0.529000000
H    -1.807000000    -5.535000000     0.941000000
O     1.238000000    -7.253000000     1.406000000
H     0.638000000    -7.687000000     0.799000000
H     0.863000000    -6.380000000     1.529000000
O     1.700000000    -7.959000000     6.776000000
H     1.374000000    -7.685000000     7.633000000
H     1.800000000    -7.142000000     6.286000000
O     5.181000000    -5.840000000     2.215000000
H     4.592000000    -5.615000000     2.936000000
H     6.029000000    -5.482000000     2.478000000
O    -0.078000000    -5.362000000     6.586000000
H     0.048000000    -5.956000000     5.845000000
H    -0.121000000    -4.492000000     6.190000000
O     2.320000000    -3.746000000    -1.237000000
H     2.157000000    -3.046000000    -0.605000000
H     2.662000000    -4.469000000    -0.711000000
O     0.629000000    -5.759000000    -1.816000000
H     1.103000000    -6.232000000    -2.499000000
H     1.047000000    -4.899000000    -1.785000000
O     3.215000000    -5.127000000     3.936000000
H     2.414000000    -4.806000000     3.521000000
H     2.941000000    -5.909000000     4.414000000
O    -4.669000000    -5.351000000     5.932000000
H    -3.985000000    -5.524000000     6.579000000
H    -5.218000000    -4.680000000     6.339000000
O     4.961000000    -6.718000000    -1.843000000
H     5.277000000    -7.427000000    -1.282000000
H     4.332000000    -6.245000000    -1.299000000
O    -4.554000000    -6.422000000     1.073000000
H    -3.721000000    -6.193000000     0.659000000
H    -4.344000000    -6.506000000     2.003000000
O    -3.577000000    -6.226000000     3.624000000
H    -2.828000000    -5.649000000     3.475000000
H    -3.941000000    -5.935000000     4.460000000
O     3.316000000    -5.846000000     0.315000000
H     2.701000000    -6.542000000     0.547000000
H     3.831000000    -5.706000000     1.110000000
O     0.450000000    -6.507000000     4.282000000
H     0.366000000    -7.407000000     3.968000000
H     0.530000000    -5.982000000     3.485000000
O    -2.872000000    -9.695000000     0.111000000
H    -2.771000000    -9.606000000    -0.837000000
H    -2.741000000    -8.810000000     0.450000000
O    -2.558000000    -5.707000000     7.751000000
H    -1.766000000    -5.624000000     7.219000000
H    -2.249000000    -6.049000000     8.590000000
O     0.090000000    -9.630000000     3.079000000
H     0.058000000    -9.685000000     2.124000000
H     1.022000000    -9.554000000     3.285000000
O    -4.241000000    -8.851000000     4.755000000
H    -3.368000000    -9.242000000     4.782000000
H    -4.136000000    -8.067000000     4.216000000
O     0.102000000    -8.538000000    -0.904000000
H     0.545000000    -7.713000000    -1.100000000
H    -0.649000000    -8.554000000    -1.498000000
