201
-1259.36598
C     4.600000000    -1.125000000    -1.229000000
H     4.707000000    -0.684000000    -0.242000000
C     4.182000000    -0.477000000    -2.415000000
C     3.973000000    -1.233000000    -3.553000000
H     3.645000000    -0.796000000    -4.493000000
C     3.618000000     0.931000000    -2.320000000
O     4.421000000     1.787000000    -1.440000000
H     2.641000000     0.734000000    -1.855000000
O     3.311000000     1.519000000    -3.555000000
C     2.110000000     2.216000000    -3.518000000
C     1.045000000     1.604000000    -4.119000000
H     1.166000000     0.571000000    -4.437000000
C    -0.213000000     2.162000000    -4.145000000
O    -1.233000000     1.405000000    -4.609000000
C    -0.539000000     3.441000000    -3.604000000
C    -1.927000000     4.068000000    -3.562000000
H    -1.872000000     5.158000000    -3.596000000
C    -2.648000000     3.458000000    -2.355000000
C    -2.735000000     4.189000000    -1.171000000
H    -2.350000000     5.204000000    -1.128000000
H    -2.538000000     3.921000000    -4.456000000
C     0.563000000     4.033000000    -3.006000000
H     0.385000000     4.940000000    -2.433000000
C     1.855000000     3.481000000    -3.010000000
C     2.985000000     4.192000000    -2.268000000
H     2.839000000     5.274000000    -2.255000000
H     3.964000000     4.066000000    -2.735000000
C     2.975000000     3.691000000    -0.879000000
C     2.181000000     4.336000000     0.138000000
H     1.715000000     5.306000000    -0.014000000
C     3.711000000     2.546000000    -0.541000000
C     3.655000000     2.073000000     0.783000000
H     4.034000000     1.088000000     1.045000000
C     2.904000000     2.746000000     1.747000000
O     2.843000000     2.103000000     2.987000000
C     1.661000000     1.418000000     3.343000000
C     1.992000000     0.020000000     3.921000000
C     1.008000000    -0.866000000     4.300000000
H    -0.002000000    -0.479000000     4.189000000
C     3.327000000    -0.446000000     3.967000000
H     4.114000000     0.210000000     3.606000000
O     0.818000000     2.171000000     4.242000000
H     1.091000000     1.167000000     2.437000000
C     2.070000000     3.850000000     1.485000000
C     1.352000000     4.540000000     2.641000000
H     1.233000000     5.616000000     2.497000000
H     1.934000000     4.459000000     3.561000000
C    -0.038000000     4.021000000     2.883000000
C    -1.104000000     4.521000000     2.150000000
H    -0.810000000     5.243000000     1.393000000
C    -0.210000000     2.916000000     3.709000000
C    -1.527000000     2.397000000     3.961000000
H    -1.656000000     1.479000000     4.527000000
C    -2.581000000     2.838000000     3.127000000
O    -3.718000000     2.054000000     3.094000000
C    -3.732000000     1.109000000     2.030000000
C    -4.266000000    -0.194000000     2.536000000
C    -3.948000000    -0.588000000     3.828000000
H    -3.394000000     0.087000000     4.475000000
C    -5.001000000    -0.986000000     1.670000000
H    -5.191000000    -0.689000000     0.641000000
O    -4.415000000     1.591000000     0.890000000
H    -2.663000000     0.922000000     1.848000000
C    -2.367000000     3.967000000     2.266000000
C    -3.349000000     4.413000000     1.235000000
H    -3.205000000     5.482000000     1.065000000
H    -4.335000000     4.372000000     1.702000000
C    -3.270000000     3.576000000    -0.023000000
C    -3.777000000     2.219000000    -0.142000000
C    -3.810000000     1.543000000    -1.337000000
H    -4.132000000     0.506000000    -1.395000000
C    -3.220000000     2.212000000    -2.436000000
O    -3.145000000     1.471000000    -3.585000000
C    -1.953000000     0.691000000    -3.632000000
H    -1.399000000     0.703000000    -2.681000000
C    -2.027000000    -0.822000000    -3.920000000
C    -1.171000000    -1.428000000    -4.900000000
H    -0.372000000    -0.911000000    -5.425000000
C    -2.988000000    -1.566000000    -3.302000000
H    -3.561000000    -0.957000000    -2.608000000
C    -2.972000000    -2.919000000    -3.411000000
O    -3.844000000    -3.761000000    -2.674000000
C    -2.149000000    -3.595000000    -4.358000000
H    -2.166000000    -4.650000000    -4.621000000
C    -1.244000000    -2.834000000    -5.051000000
O    -0.464000000    -3.437000000    -5.997000000
C     0.824000000    -3.068000000    -6.279000000
C     1.833000000    -3.302000000    -5.329000000
H     1.542000000    -3.660000000    -4.345000000
C     1.139000000    -2.591000000    -7.574000000
H     0.406000000    -2.286000000    -8.317000000
C     2.518000000    -2.428000000    -7.902000000
H     2.783000000    -1.941000000    -8.837000000
C     3.519000000    -2.637000000    -6.970000000
H     4.551000000    -2.401000000    -7.214000000
C     3.213000000    -3.095000000    -5.701000000
O     4.228000000    -3.234000000    -4.765000000
C     4.309000000    -2.572000000    -3.599000000
C     4.955000000    -3.185000000    -2.461000000
H     5.256000000    -4.230000000    -2.464000000
C     5.094000000    -2.414000000    -1.277000000
O     5.581000000    -3.084000000    -0.178000000
C     6.017000000    -2.480000000     0.968000000
C     5.219000000    -2.515000000     2.135000000
H     4.204000000    -2.904000000     2.134000000
C     7.319000000    -2.099000000     0.999000000
H     7.866000000    -1.985000000     0.066000000
C     7.882000000    -1.738000000     2.206000000
H     8.920000000    -1.420000000     2.151000000
C     7.096000000    -1.696000000     3.394000000
H     7.634000000    -1.493000000     4.317000000
C     5.733000000    -2.049000000     3.358000000
O     5.013000000    -2.095000000     4.557000000
C     3.689000000    -1.677000000     4.520000000
C     2.650000000    -2.499000000     4.989000000
H     2.981000000    -3.484000000     5.310000000
C     1.316000000    -2.075000000     4.899000000
O     0.328000000    -2.865000000     5.399000000
C    -0.694000000    -2.415000000     6.165000000
C    -1.978000000    -2.613000000     5.671000000
H    -2.129000000    -3.059000000     4.691000000
C    -0.473000000    -1.777000000     7.378000000
H     0.485000000    -1.732000000     7.890000000
C    -1.580000000    -1.531000000     8.121000000
H    -1.500000000    -1.127000000     9.127000000
C    -2.883000000    -1.610000000     7.535000000
H    -3.794000000    -1.326000000     8.056000000
C    -3.119000000    -2.175000000     6.289000000
O    -4.307000000    -2.270000000     5.620000000
C    -4.482000000    -1.778000000     4.318000000
C    -5.176000000    -2.626000000     3.404000000
H    -5.533000000    -3.597000000     3.737000000
C    -5.478000000    -2.226000000     2.089000000
O    -6.292000000    -2.972000000     1.364000000
C    -6.235000000    -2.832000000    -0.046000000
C    -7.161000000    -2.034000000    -0.717000000
H    -7.968000000    -1.534000000    -0.187000000
C    -6.972000000    -1.817000000    -2.123000000
H    -7.636000000    -1.153000000    -2.670000000
C    -5.887000000    -2.428000000    -2.751000000
H    -5.847000000    -2.280000000    -3.827000000
C    -4.971000000    -3.232000000    -2.019000000
C    -5.130000000    -3.398000000    -0.657000000
H    -4.323000000    -3.838000000    -0.076000000
O    -0.156000000    -7.482000000     2.162000000
H     0.079000000    -7.897000000     1.332000000
H    -0.463000000    -6.610000000     1.915000000
O     2.681000000    -7.133000000     1.302000000
H     3.190000000    -6.447000000     1.735000000
H     1.783000000    -6.801000000     1.303000000
O    -0.072000000    -8.042000000    -2.804000000
H    -0.390000000    -7.178000000    -2.544000000
H    -0.761000000    -8.390000000    -3.370000000
O     3.417000000    -6.412000000    -2.323000000
H     2.757000000    -5.759000000    -2.088000000
H     3.354000000    -6.484000000    -3.275000000
O     5.958000000    -5.859000000     3.824000000
H     5.059000000    -5.531000000     3.857000000
H     6.334000000    -5.610000000     4.668000000
O    -2.441000000    -7.764000000     4.149000000
H    -2.210000000    -8.563000000     4.624000000
H    -1.713000000    -7.628000000     3.543000000
O     1.268000000    -4.130000000    -1.819000000
H     0.409000000    -4.510000000    -1.635000000
H     1.408000000    -3.500000000    -1.112000000
O     3.032000000    -5.502000000     3.587000000
H     2.630000000    -6.075000000     4.241000000
H     2.292000000    -5.131000000     3.106000000
O    -1.368000000    -5.379000000    -1.465000000
H    -1.364000000    -5.459000000    -0.511000000
H    -2.063000000    -4.747000000    -1.649000000
O     2.995000000    -8.885000000     3.397000000
H     2.498000000    -8.342000000     2.785000000
H     3.099000000    -9.722000000     2.944000000
O     6.391000000    -6.080000000    -0.523000000
H     6.684000000    -6.969000000    -0.319000000
H     5.444000000    -6.160000000    -0.637000000
O    -3.166000000    -5.052000000     2.317000000
H    -2.354000000    -4.793000000     1.881000000
H    -3.100000000    -6.003000000     2.401000000
O    -3.984000000    -5.813000000     5.430000000
H    -3.845000000    -5.205000000     4.704000000
H    -3.764000000    -6.672000000     5.069000000
O     4.162000000    -8.571000000    -0.559000000
H     4.019000000    -7.987000000    -1.303000000
H     3.683000000    -8.162000000     0.162000000
O     0.486000000    -6.068000000     4.646000000
H     0.177000000    -6.885000000     4.254000000
H     0.616000000    -5.480000000     3.902000000
O    -5.827000000    -5.944000000     1.739000000
H    -5.293000000    -6.739000000     1.750000000
H    -5.206000000    -5.237000000     1.914000000
O     0.066000000    -9.328000000    -0.230000000
H     0.951000000    -9.316000000    -0.596000000
H    -0.459000000    -8.831000000    -0.857000000
O    -4.319000000    -8.010000000     1.045000000
H    -4.556000000    -8.878000000     1.372000000
H    -4.221000000    -8.129000000     0.100000000
O     0.781000000    -5.709000000     7.293000000
H     0.216000000    -4.971000000     7.522000000
H     0.684000000    -5.798000000     6.345000000
