201
-1230.00894
C    -3.011000000    -3.292000000     1.931000000
H    -2.585000000    -3.647000000     0.997000000
C    -3.727000000    -2.100000000     1.901000000
C    -4.205000000    -1.545000000     3.107000000
H    -4.815000000    -0.646000000     3.065000000
C    -3.970000000    -1.369000000     0.608000000
O    -4.417000000    -2.202000000    -0.453000000
H    -3.050000000    -0.881000000     0.256000000
O    -5.014000000    -0.362000000     0.660000000
C    -4.700000000     0.905000000     0.140000000
C    -4.078000000     1.798000000     0.961000000
H    -4.022000000     1.571000000     2.023000000
C    -3.494000000     2.947000000     0.481000000
O    -2.657000000     3.657000000     1.364000000
C    -3.605000000     3.198000000    -0.855000000
C    -2.976000000     4.420000000    -1.465000000
H    -3.598000000     4.693000000    -2.320000000
C    -1.469000000     4.273000000    -1.821000000
C    -1.019000000     3.940000000    -3.137000000
H    -1.722000000     3.770000000    -3.949000000
H    -3.097000000     5.307000000    -0.840000000
C    -4.112000000     2.245000000    -1.763000000
H    -4.005000000     2.353000000    -2.839000000
C    -4.748000000     1.044000000    -1.274000000
C    -5.276000000     0.042000000    -2.222000000
H    -5.481000000     0.528000000    -3.179000000
H    -6.128000000    -0.403000000    -1.705000000
C    -4.183000000    -0.952000000    -2.497000000
C    -3.449000000    -0.779000000    -3.687000000
H    -3.507000000     0.080000000    -4.351000000
C    -3.836000000    -2.019000000    -1.658000000
C    -2.866000000    -2.899000000    -2.023000000
H    -2.622000000    -3.753000000    -1.397000000
C    -2.126000000    -2.739000000    -3.171000000
O    -1.154000000    -3.636000000    -3.395000000
C     0.174000000    -3.175000000    -2.901000000
C     0.972000000    -4.298000000    -2.275000000
C     2.383000000    -4.316000000    -2.435000000
H     2.908000000    -3.523000000    -2.962000000
C     0.314000000    -5.226000000    -1.487000000
H    -0.714000000    -5.059000000    -1.178000000
O     0.884000000    -2.630000000    -4.017000000
H     0.147000000    -2.379000000    -2.142000000
C    -2.385000000    -1.615000000    -3.976000000
C    -1.456000000    -1.394000000    -5.191000000
H    -1.954000000    -0.917000000    -6.038000000
H    -1.046000000    -2.300000000    -5.642000000
C    -0.269000000    -0.608000000    -4.714000000
C    -0.293000000     0.760000000    -4.755000000
H    -1.174000000     1.303000000    -5.088000000
C     0.812000000    -1.254000000    -4.234000000
C     1.929000000    -0.511000000    -3.853000000
H     2.816000000    -1.014000000    -3.476000000
C     1.921000000     0.869000000    -3.933000000
O     3.053000000     1.499000000    -3.464000000
C     2.972000000     2.187000000    -2.224000000
C     4.149000000     1.999000000    -1.367000000
C     4.562000000     0.723000000    -1.219000000
H     4.197000000    -0.050000000    -1.891000000
C     4.631000000     2.981000000    -0.542000000
H     4.265000000     4.005000000    -0.546000000
O     2.590000000     3.610000000    -2.456000000
H     2.119000000     1.688000000    -1.741000000
C     0.826000000     1.516000000    -4.358000000
C     0.805000000     2.980000000    -4.583000000
H     0.100000000     3.206000000    -5.386000000
H     1.800000000     3.364000000    -4.815000000
C     0.311000000     3.706000000    -3.368000000
C     1.253000000     3.996000000    -2.362000000
C     0.850000000     4.261000000    -1.111000000
H     1.583000000     4.425000000    -0.326000000
C    -0.530000000     4.493000000    -0.809000000
O    -0.873000000     4.823000000     0.479000000
C    -1.234000000     3.722000000     1.328000000
H    -0.912000000     2.753000000     0.918000000
C    -0.501000000     3.764000000     2.709000000
C    -1.083000000     3.010000000     3.755000000
H    -1.980000000     2.451000000     3.501000000
C     0.624000000     4.440000000     2.940000000
H     1.172000000     4.859000000     2.099000000
C     1.299000000     4.399000000     4.187000000
O     2.549000000     4.903000000     4.469000000
C     0.633000000     3.673000000     5.229000000
H     1.037000000     3.647000000     6.238000000
C    -0.487000000     2.950000000     5.000000000
O    -0.985000000     2.112000000     5.940000000
C    -2.279000000     1.720000000     5.995000000
C    -2.569000000     0.346000000     5.885000000
H    -1.686000000    -0.277000000     5.760000000
C    -3.384000000     2.595000000     6.087000000
H    -3.246000000     3.664000000     5.951000000
C    -4.713000000     2.125000000     5.920000000
H    -5.543000000     2.826000000     5.970000000
C    -4.897000000     0.747000000     5.651000000
H    -5.883000000     0.339000000     5.441000000
C    -3.847000000    -0.152000000     5.653000000
O    -4.078000000    -1.498000000     5.464000000
C    -3.824000000    -2.104000000     4.316000000
C    -2.928000000    -3.210000000     4.359000000
H    -2.565000000    -3.524000000     5.334000000
C    -2.571000000    -3.795000000     3.158000000
O    -1.771000000    -4.953000000     3.187000000
C    -1.853000000    -5.857000000     2.210000000
C    -0.696000000    -5.978000000     1.406000000
H     0.154000000    -5.310000000     1.521000000
C    -2.854000000    -6.738000000     2.053000000
H    -3.704000000    -6.626000000     2.721000000
C    -2.807000000    -7.750000000     1.141000000
H    -3.611000000    -8.482000000     1.127000000
C    -1.643000000    -7.974000000     0.496000000
H    -1.531000000    -8.811000000    -0.188000000
C    -0.605000000    -7.057000000     0.524000000
O     0.539000000    -7.161000000    -0.244000000
C     1.109000000    -6.241000000    -1.003000000
C     2.502000000    -6.260000000    -1.006000000
H     3.066000000    -7.069000000    -0.548000000
C     3.125000000    -5.306000000    -1.789000000
O     4.485000000    -5.303000000    -1.898000000
C     5.212000000    -4.111000000    -1.934000000
C     5.021000000    -3.086000000    -0.989000000
H     4.328000000    -3.215000000    -0.162000000
C     6.372000000    -4.137000000    -2.697000000
H     6.558000000    -4.993000000    -3.341000000
C     7.170000000    -3.001000000    -2.819000000
H     8.069000000    -2.968000000    -3.428000000
C     6.902000000    -1.891000000    -2.009000000
H     7.507000000    -0.988000000    -2.024000000
C     5.852000000    -1.972000000    -1.065000000
O     5.766000000    -1.000000000    -0.106000000
C     5.434000000     0.354000000    -0.188000000
C     5.884000000     1.300000000     0.707000000
H     6.530000000     0.985000000     1.522000000
C     5.456000000     2.601000000     0.509000000
O     5.756000000     3.515000000     1.480000000
C     4.973000000     4.523000000     1.821000000
C     5.053000000     5.801000000     1.229000000
H     5.675000000     6.011000000     0.362000000
C     4.293000000     6.766000000     1.783000000
H     4.279000000     7.764000000     1.352000000
C     3.477000000     6.522000000     2.907000000
H     2.896000000     7.298000000     3.398000000
C     3.445000000     5.248000000     3.471000000
C     4.166000000     4.215000000     2.926000000
H     3.991000000     3.190000000     3.240000000
O     4.329000000    -4.901000000     8.148000000
H     5.272000000    -4.936000000     8.308000000
H     4.225000000    -4.228000000     7.476000000
O     3.742000000    -2.525000000     6.666000000
H     4.003000000    -1.865000000     7.308000000
H     3.670000000    -2.044000000     5.842000000
O     0.709000000     3.030000000     8.639000000
H     1.432000000     3.463000000     9.093000000
H     0.941000000     2.101000000     8.652000000
O     7.686000000     0.130000000     4.232000000
H     7.664000000    -0.703000000     4.703000000
H     6.841000000     0.536000000     4.424000000
O     2.360000000    -4.438000000     3.150000000
H     1.680000000    -4.026000000     2.616000000
H     1.993000000    -4.454000000     4.034000000
O     5.809000000    -5.367000000     5.252000000
H     5.004000000    -5.860000000     5.417000000
H     5.635000000    -4.888000000     4.442000000
O     7.643000000    -1.929000000     6.166000000
H     6.917000000    -1.343000000     6.380000000
H     7.906000000    -2.302000000     7.007000000
O     4.429000000    -0.336000000     7.911000000
H     5.287000000     0.086000000     7.858000000
H     3.827000000     0.294000000     7.515000000
O     1.698000000    -4.339000000     6.346000000
H     2.297000000    -3.594000000     6.292000000
H     0.866000000    -3.958000000     6.626000000
O     7.855000000    -3.507000000     3.848000000
H     7.136000000    -2.998000000     3.472000000
H     7.950000000    -3.167000000     4.737000000
O     0.022000000    -1.477000000     6.837000000
H     0.366000000    -0.904000000     7.522000000
H     0.527000000    -1.247000000     6.057000000
O     5.082000000    -4.620000000     2.566000000
H     4.140000000    -4.763000000     2.648000000
H     5.203000000    -3.694000000     2.774000000
O     5.100000000     0.848000000     4.955000000
H     4.490000000     1.495000000     5.309000000
H     4.542000000     0.214000000     4.504000000
O     4.261000000     3.757000000     6.838000000
H     3.748000000     2.967000000     6.668000000
H     4.822000000     3.524000000     7.578000000
O     0.882000000     0.331000000     9.154000000
H     1.521000000    -0.222000000     9.604000000
H     0.055000000     0.156000000     9.604000000
O     0.441000000    -2.993000000     1.628000000
H     0.929000000    -2.171000000     1.575000000
H    -0.467000000    -2.723000000     1.762000000
O     3.469000000    -6.395000000     5.667000000
H     3.077000000    -7.191000000     6.025000000
H     3.048000000    -5.683000000     6.149000000
O     2.674000000     1.474000000     6.493000000
H     2.055000000     1.610000000     7.211000000
H     2.348000000     0.697000000     6.040000000
O     5.754000000    -1.927000000     3.043000000
H     6.051000000    -1.140000000     2.587000000
H     4.990000000    -1.639000000     3.544000000
