201
-1255.97945
C     4.753000000    -1.557000000    -1.156000000
H     4.945000000    -1.232000000    -0.137000000
C     4.386000000    -0.767000000    -2.212000000
C     4.105000000    -1.321000000    -3.449000000
H     3.749000000    -0.706000000    -4.271000000
C     4.060000000     0.707000000    -1.937000000
O     4.880000000     1.360000000    -0.898000000
H     3.087000000     0.771000000    -1.427000000
O     3.896000000     1.475000000    -3.114000000
C     2.678000000     2.228000000    -3.165000000
C     1.561000000     1.840000000    -3.921000000
H     1.586000000     0.952000000    -4.547000000
C     0.405000000     2.600000000    -3.960000000
O    -0.657000000     2.009000000    -4.605000000
C     0.259000000     3.730000000    -3.179000000
C    -1.020000000     4.530000000    -3.110000000
H    -0.754000000     5.569000000    -2.905000000
C    -1.977000000     3.966000000    -2.053000000
C    -1.903000000     4.527000000    -0.727000000
H    -1.047000000     5.140000000    -0.455000000
H    -1.483000000     4.554000000    -4.098000000
C     1.325000000     4.071000000    -2.384000000
H     1.252000000     4.884000000    -1.666000000
C     2.560000000     3.382000000    -2.387000000
C     3.672000000     3.982000000    -1.487000000
H     3.522000000     5.045000000    -1.287000000
H     4.684000000     3.902000000    -1.889000000
C     3.612000000     3.324000000    -0.133000000
C     2.867000000     3.954000000     0.840000000
H     2.425000000     4.927000000     0.646000000
C     4.227000000     2.097000000     0.065000000
C     4.055000000     1.407000000     1.250000000
H     4.683000000     0.529000000     1.376000000
C     3.402000000     2.051000000     2.270000000
O     3.239000000     1.262000000     3.441000000
C     1.906000000     0.679000000     3.609000000
C     2.052000000    -0.686000000     4.279000000
C     1.069000000    -1.221000000     5.111000000
H     0.210000000    -0.614000000     5.385000000
C     3.080000000    -1.531000000     3.981000000
H     3.794000000    -1.245000000     3.213000000
O     1.176000000     1.529000000     4.562000000
H     1.363000000     0.702000000     2.653000000
C     2.717000000     3.288000000     2.070000000
C     1.989000000     3.964000000     3.255000000
H     1.959000000     5.043000000     3.090000000
H     2.492000000     3.680000000     4.182000000
C     0.594000000     3.471000000     3.256000000
C    -0.353000000     4.159000000     2.567000000
H    -0.104000000     5.044000000     1.986000000
C     0.196000000     2.311000000     3.932000000
C    -1.088000000     1.796000000     3.898000000
H    -1.364000000     0.824000000     4.300000000
C    -2.072000000     2.571000000     3.338000000
O    -3.226000000     1.947000000     3.049000000
C    -3.405000000     1.360000000     1.742000000
C    -4.013000000    -0.045000000     1.862000000
C    -3.694000000    -0.852000000     2.956000000
H    -2.968000000    -0.478000000     3.673000000
C    -4.959000000    -0.593000000     0.883000000
H    -5.113000000    -0.006000000    -0.019000000
O    -4.209000000     2.227000000     0.974000000
H    -2.433000000     1.299000000     1.231000000
C    -1.659000000     3.711000000     2.646000000
C    -2.597000000     4.444000000     1.703000000
H    -2.397000000     5.515000000     1.636000000
H    -3.565000000     4.551000000     2.198000000
C    -2.675000000     3.906000000     0.268000000
C    -3.497000000     2.813000000    -0.054000000
C    -3.670000000     2.269000000    -1.327000000
H    -4.224000000     1.371000000    -1.587000000
C    -2.850000000     2.922000000    -2.345000000
O    -2.770000000     2.299000000    -3.570000000
C    -1.637000000     1.424000000    -3.757000000
H    -1.178000000     1.203000000    -2.781000000
C    -2.119000000     0.127000000    -4.293000000
C    -1.234000000    -0.668000000    -5.023000000
H    -0.231000000    -0.335000000    -5.279000000
C    -3.447000000    -0.289000000    -4.089000000
H    -4.174000000     0.259000000    -3.496000000
C    -3.829000000    -1.568000000    -4.482000000
O    -5.148000000    -1.966000000    -4.339000000
C    -2.869000000    -2.464000000    -5.041000000
H    -3.206000000    -3.440000000    -5.381000000
C    -1.582000000    -1.994000000    -5.334000000
O    -0.813000000    -2.845000000    -6.049000000
C     0.491000000    -2.588000000    -6.286000000
C     1.408000000    -2.999000000    -5.338000000
H     1.053000000    -3.491000000    -4.436000000
C     0.892000000    -1.973000000    -7.448000000
H     0.169000000    -1.672000000    -8.202000000
C     2.206000000    -1.789000000    -7.691000000
H     2.556000000    -1.303000000    -8.597000000
C     3.156000000    -2.239000000    -6.714000000
H     4.199000000    -2.041000000    -6.949000000
C     2.799000000    -2.833000000    -5.547000000
O     3.834000000    -3.317000000    -4.725000000
C     4.239000000    -2.761000000    -3.595000000
C     4.654000000    -3.542000000    -2.572000000
H     4.641000000    -4.629000000    -2.612000000
C     4.885000000    -2.920000000    -1.292000000
O     5.161000000    -3.785000000    -0.243000000
C     5.591000000    -3.396000000     0.999000000
C     4.722000000    -3.617000000     2.104000000
H     3.728000000    -4.053000000     2.056000000
C     6.888000000    -2.860000000     1.180000000
H     7.524000000    -2.555000000     0.353000000
C     7.345000000    -2.675000000     2.503000000
H     8.347000000    -2.314000000     2.720000000
C     6.469000000    -2.872000000     3.555000000
H     6.722000000    -2.666000000     4.592000000
C     5.211000000    -3.347000000     3.365000000
O     4.376000000    -3.467000000     4.468000000
C     3.228000000    -2.806000000     4.598000000
C     2.281000000    -3.224000000     5.513000000
H     2.406000000    -4.156000000     6.060000000
C     1.144000000    -2.456000000     5.743000000
O     0.225000000    -2.934000000     6.635000000
C    -1.122000000    -2.642000000     6.611000000
C    -1.773000000    -2.708000000     5.351000000
H    -1.257000000    -2.945000000     4.424000000
C    -1.857000000    -2.437000000     7.790000000
H    -1.423000000    -2.194000000     8.757000000
C    -3.241000000    -2.212000000     7.724000000
H    -3.795000000    -1.907000000     8.607000000
C    -3.889000000    -2.203000000     6.454000000
H    -4.973000000    -2.136000000     6.517000000
C    -3.168000000    -2.520000000     5.261000000
O    -3.832000000    -2.944000000     4.104000000
C    -4.093000000    -2.194000000     3.033000000
C    -4.993000000    -2.691000000     2.127000000
H    -5.271000000    -3.741000000     2.082000000
C    -5.547000000    -1.866000000     1.103000000
O    -6.413000000    -2.465000000     0.231000000
C    -6.629000000    -1.835000000    -0.991000000
C    -7.866000000    -1.189000000    -1.189000000
H    -8.647000000    -0.939000000    -0.476000000
C    -8.042000000    -0.609000000    -2.482000000
H    -8.952000000    -0.037000000    -2.644000000
C    -7.125000000    -0.785000000    -3.503000000
H    -7.414000000    -0.462000000    -4.500000000
C    -6.001000000    -1.588000000    -3.307000000
C    -5.673000000    -1.975000000    -1.988000000
H    -4.800000000    -2.601000000    -1.820000000
O    -1.269000000    -9.803000000     0.511000000
H    -1.238000000    -9.126000000    -0.165000000
H    -1.420000000   -10.616000000     0.029000000
O    -4.773000000    -8.519000000    -2.957000000
H    -4.397000000    -9.100000000    -2.296000000
H    -4.077000000    -7.891000000    -3.148000000
O     2.205000000    -6.007000000     0.656000000
H     2.902000000    -6.408000000     0.137000000
H     1.432000000    -6.049000000     0.093000000
O     3.639000000    -7.451000000    -1.465000000
H     4.508000000    -7.639000000    -1.108000000
H     3.122000000    -8.229000000    -1.258000000
O     1.886000000    -5.992000000    -3.221000000
H     2.747000000    -6.326000000    -2.968000000
H     1.471000000    -5.749000000    -2.393000000
O     1.909000000    -9.571000000    -0.825000000
H     1.712000000   -10.020000000    -1.647000000
H     1.139000000    -9.026000000    -0.660000000
O    -1.859000000    -6.218000000     1.943000000
H    -1.671000000    -7.077000000     2.320000000
H    -0.998000000    -5.846000000     1.753000000
O    -1.305000000    -7.965000000    -1.488000000
H    -0.779000000    -7.169000000    -1.422000000
H    -2.108000000    -7.686000000    -1.929000000
O    -2.761000000    -6.683000000    -3.193000000
H    -2.527000000    -6.192000000    -3.981000000
H    -2.466000000    -6.130000000    -2.470000000
O     3.588000000    -7.503000000     2.969000000
H     2.903000000    -7.233000000     2.357000000
H     4.403000000    -7.207000000     2.563000000
O     0.559000000    -6.307000000     3.793000000
H     1.424000000    -6.716000000     3.798000000
H     0.689000000    -5.477000000     3.333000000
O    -3.913000000    -5.736000000     0.286000000
H    -3.302000000    -5.349000000    -0.340000000
H    -3.358000000    -6.057000000     0.997000000
O     0.855000000    -4.279000000     2.218000000
H     0.494000000    -3.619000000     1.626000000
H     1.397000000    -4.834000000     1.657000000
O     2.021000000    -6.124000000    -5.822000000
H     2.000000000    -6.229000000    -4.871000000
H     1.841000000    -5.195000000    -5.965000000
O    -1.795000000    -5.475000000    -5.275000000
H    -1.885000000    -6.073000000    -6.017000000
H    -1.300000000    -4.734000000    -5.625000000
O    -5.754000000    -6.242000000     2.379000000
H    -5.284000000    -6.837000000     2.963000000
H    -5.232000000    -6.231000000     1.577000000
O    -5.904000000    -6.270000000    -1.448000000
H    -5.463000000    -6.916000000    -2.000000000
H    -5.409000000    -6.278000000    -0.628000000
O    -2.028000000    -5.727000000     4.917000000
H    -1.419000000    -6.371000000     4.556000000
H    -1.857000000    -4.929000000     4.417000000
O    -0.627000000    -8.229000000    -4.346000000
H     0.017000000    -7.683000000    -4.798000000
H    -0.819000000    -7.753000000    -3.538000000
