201
-1230.58809
C     4.779000000    -1.449000000    -1.416000000
H     5.619000000    -0.911000000    -0.983000000
C     3.817000000    -0.774000000    -2.131000000
C     2.851000000    -1.477000000    -2.836000000
H     2.112000000    -0.911000000    -3.398000000
C     3.699000000     0.739000000    -2.008000000
O     4.814000000     1.423000000    -1.299000000
H     2.816000000     0.916000000    -1.375000000
O     3.506000000     1.514000000    -3.238000000
C     2.411000000     2.332000000    -3.197000000
C     1.256000000     1.912000000    -3.817000000
H     1.221000000     1.019000000    -4.435000000
C     0.158000000     2.779000000    -3.831000000
O    -0.935000000     2.358000000    -4.432000000
C     0.042000000     3.993000000    -3.109000000
C    -1.252000000     4.782000000    -2.917000000
H    -1.074000000     5.856000000    -2.830000000
C    -2.049000000     4.245000000    -1.793000000
C    -1.938000000     4.745000000    -0.476000000
H    -1.161000000     5.486000000    -0.308000000
H    -1.940000000     4.744000000    -3.765000000
C     1.194000000     4.281000000    -2.366000000
H     1.250000000     5.167000000    -1.739000000
C     2.370000000     3.566000000    -2.536000000
C     3.529000000     4.077000000    -1.659000000
H     3.260000000     5.115000000    -1.452000000
H     4.451000000     4.009000000    -2.239000000
C     3.691000000     3.334000000    -0.272000000
C     3.183000000     3.903000000     0.871000000
H     2.800000000     4.921000000     0.880000000
C     4.363000000     2.040000000    -0.168000000
C     4.364000000     1.377000000     1.104000000
H     4.794000000     0.379000000     1.124000000
C     3.748000000     1.965000000     2.150000000
O     3.631000000     1.137000000     3.237000000
C     2.280000000     0.605000000     3.357000000
C     2.413000000    -0.867000000     3.714000000
C     1.324000000    -1.565000000     4.099000000
H     0.299000000    -1.205000000     4.089000000
C     3.636000000    -1.523000000     3.589000000
H     4.512000000    -0.906000000     3.407000000
O     1.618000000     1.354000000     4.407000000
H     1.782000000     0.645000000     2.377000000
C     3.184000000     3.226000000     2.111000000
C     2.501000000     3.850000000     3.307000000
H     2.494000000     4.942000000     3.285000000
H     2.998000000     3.534000000     4.226000000
C     1.020000000     3.457000000     3.388000000
C    -0.031000000     4.262000000     2.803000000
H     0.351000000     5.068000000     2.181000000
C     0.639000000     2.318000000     4.081000000
C    -0.678000000     1.855000000     4.021000000
H    -0.996000000     0.922000000     4.479000000
C    -1.619000000     2.619000000     3.349000000
O    -2.945000000     2.136000000     3.309000000
C    -3.425000000     1.486000000     2.094000000
C    -4.252000000     0.207000000     2.343000000
C    -3.916000000    -0.576000000     3.452000000
H    -3.116000000    -0.379000000     4.162000000
C    -5.111000000    -0.244000000     1.414000000
H    -5.332000000     0.341000000     0.525000000
O    -4.191000000     2.495000000     1.337000000
H    -2.541000000     1.191000000     1.509000000
C    -1.330000000     3.876000000     2.763000000
C    -2.385000000     4.649000000     2.004000000
H    -2.132000000     5.711000000     1.976000000
H    -3.312000000     4.700000000     2.579000000
C    -2.661000000     4.162000000     0.565000000
C    -3.562000000     3.118000000     0.328000000
C    -3.668000000     2.660000000    -0.990000000
H    -4.437000000     1.896000000    -1.075000000
C    -2.858000000     3.118000000    -1.967000000
O    -3.018000000     2.515000000    -3.132000000
C    -1.941000000     1.641000000    -3.568000000
H    -1.295000000     1.285000000    -2.752000000
C    -2.514000000     0.436000000    -4.335000000
C    -1.809000000    -0.316000000    -5.240000000
H    -0.791000000     0.016000000    -5.430000000
C    -3.769000000    -0.141000000    -3.956000000
H    -4.234000000     0.269000000    -3.063000000
C    -4.242000000    -1.313000000    -4.500000000
O    -5.191000000    -2.081000000    -3.875000000
C    -3.538000000    -1.964000000    -5.448000000
H    -3.876000000    -2.917000000    -5.849000000
C    -2.229000000    -1.529000000    -5.772000000
O    -1.433000000    -2.218000000    -6.648000000
C    -0.168000000    -2.664000000    -6.336000000
C     0.099000000    -2.757000000    -4.974000000
H    -0.642000000    -2.584000000    -4.198000000
C     0.786000000    -3.034000000    -7.275000000
H     0.583000000    -2.956000000    -8.340000000
C     2.031000000    -3.514000000    -6.990000000
H     2.759000000    -3.899000000    -7.699000000
C     2.275000000    -3.592000000    -5.623000000
H     3.167000000    -4.124000000    -5.303000000
C     1.319000000    -3.319000000    -4.646000000
O     1.584000000    -3.443000000    -3.297000000
C     2.686000000    -2.827000000    -2.698000000
C     3.634000000    -3.510000000    -1.989000000
H     3.605000000    -4.584000000    -1.829000000
C     4.695000000    -2.837000000    -1.392000000
O     5.698000000    -3.612000000    -0.820000000
C     6.207000000    -3.397000000     0.437000000
C     5.380000000    -3.573000000     1.521000000
H     4.314000000    -3.728000000     1.375000000
C     7.496000000    -2.938000000     0.561000000
H     8.091000000    -2.671000000    -0.309000000
C     8.029000000    -2.652000000     1.847000000
H     9.057000000    -2.301000000     1.845000000
C     7.172000000    -2.929000000     2.981000000
H     7.474000000    -2.686000000     3.996000000
C     5.916000000    -3.452000000     2.789000000
O     5.025000000    -3.533000000     3.843000000
C     3.792000000    -2.898000000     3.836000000
C     2.725000000    -3.663000000     4.279000000
H     2.779000000    -4.711000000     4.562000000
C     1.487000000    -2.984000000     4.366000000
O     0.386000000    -3.724000000     4.760000000
C    -0.672000000    -3.207000000     5.396000000
C    -1.865000000    -3.152000000     4.731000000
H    -1.962000000    -3.352000000     3.667000000
C    -0.564000000    -2.956000000     6.748000000
H     0.427000000    -3.019000000     7.190000000
C    -1.664000000    -2.430000000     7.409000000
H    -1.557000000    -2.242000000     8.475000000
C    -2.843000000    -2.246000000     6.777000000
H    -3.728000000    -1.939000000     7.328000000
C    -3.006000000    -2.625000000     5.438000000
O    -4.188000000    -2.579000000     4.731000000
C    -4.504000000    -1.805000000     3.616000000
C    -5.498000000    -2.210000000     2.748000000
H    -5.948000000    -3.194000000     2.850000000
C    -5.763000000    -1.449000000     1.602000000
O    -6.696000000    -1.948000000     0.680000000
C    -6.787000000    -1.440000000    -0.628000000
C    -7.879000000    -0.725000000    -1.065000000
H    -8.514000000    -0.367000000    -0.260000000
C    -8.089000000    -0.439000000    -2.411000000
H    -8.890000000     0.212000000    -2.752000000
C    -7.138000000    -0.843000000    -3.416000000
H    -7.205000000    -0.392000000    -4.403000000
C    -6.090000000    -1.570000000    -2.971000000
C    -5.855000000    -1.845000000    -1.621000000
H    -4.997000000    -2.494000000    -1.464000000
O    -0.355000000    -8.197000000    -0.087000000
H    -0.247000000    -7.248000000    -0.150000000
H    -0.162000000    -8.519000000    -0.967000000
O     2.333000000    -6.467000000     0.618000000
H     2.647000000    -6.821000000    -0.214000000
H     1.690000000    -5.803000000     0.368000000
O     3.682000000    -7.527000000    -1.351000000
H     4.484000000    -7.794000000    -0.903000000
H     3.694000000    -8.013000000    -2.175000000
O    -0.333000000    -6.406000000    -2.776000000
H     0.556000000    -6.105000000    -2.963000000
H    -0.766000000    -5.647000000    -2.384000000
O    -2.145000000    -7.750000000     2.892000000
H    -2.412000000    -6.973000000     2.401000000
H    -2.156000000    -8.457000000     2.247000000
O    -5.970000000    -5.522000000    -2.102000000
H    -6.160000000    -5.017000000    -1.312000000
H    -5.048000000    -5.341000000    -2.286000000
O    -2.921000000    -7.049000000    -1.423000000
H    -2.881000000    -7.461000000    -2.286000000
H    -2.110000000    -6.544000000    -1.361000000
O    -3.566000000    -4.273000000    -2.835000000
H    -3.322000000    -3.631000000    -3.501000000
H    -2.761000000    -4.421000000    -2.338000000
O     4.760000000    -7.135000000     1.852000000
H     3.929000000    -6.958000000     1.411000000
H     5.375000000    -7.316000000     1.141000000
O     1.751000000    -6.579000000     3.647000000
H     1.894000000    -6.711000000     4.584000000
H     2.539000000    -6.932000000     3.233000000
O    -1.235000000    -6.378000000     5.109000000
H    -0.945000000    -5.572000000     4.680000000
H    -1.470000000    -6.962000000     4.387000000
O    -3.578000000    -4.269000000     0.380000000
H    -3.099000000    -4.381000000    -0.441000000
H    -2.897000000    -4.226000000     1.051000000
O    -2.381000000    -9.780000000     0.760000000
H    -1.495000000    -9.436000000     0.650000000
H    -2.946000000    -9.118000000     0.362000000
O    -4.390000000    -7.467000000     0.729000000
H    -3.901000000    -7.089000000    -0.002000000
H    -5.306000000    -7.422000000     0.454000000
O     0.836000000    -8.722000000     2.625000000
H     0.977000000    -7.785000000     2.761000000
H     0.435000000    -8.781000000     1.758000000
O    -0.355000000    -5.347000000     2.129000000
H    -0.124000000    -5.126000000     1.227000000
H     0.478000000    -5.574000000     2.542000000
O     1.768000000    -6.847000000    -6.594000000
H     1.189000000    -6.797000000    -5.833000000
H     1.176000000    -6.945000000    -7.340000000
O    -6.180000000    -4.609000000     0.435000000
H    -5.260000000    -4.512000000     0.683000000
H    -6.572000000    -3.759000000     0.632000000
O    -0.566000000    -9.211000000    -3.431000000
H    -1.522000000    -9.174000000    -3.426000000
H    -0.290000000    -8.301000000    -3.317000000
