201
-1217.46279
C     4.953000000    -1.522000000    -1.372000000
H     5.288000000    -0.923000000    -0.529000000
C     4.053000000    -0.936000000    -2.258000000
C     3.622000000    -1.709000000    -3.371000000
H     3.069000000    -1.179000000    -4.143000000
C     3.565000000     0.473000000    -2.077000000
O     4.585000000     1.258000000    -1.485000000
H     2.733000000     0.510000000    -1.360000000
O     3.184000000     1.123000000    -3.252000000
C     2.133000000     1.946000000    -3.420000000
C     1.054000000     1.555000000    -4.232000000
H     1.039000000     0.601000000    -4.752000000
C    -0.119000000     2.241000000    -4.113000000
O    -1.264000000     1.717000000    -4.724000000
C    -0.155000000     3.498000000    -3.469000000
C    -1.439000000     4.336000000    -3.350000000
H    -1.170000000     5.383000000    -3.199000000
C    -2.351000000     3.817000000    -2.184000000
C    -2.308000000     4.498000000    -0.994000000
H    -1.721000000     5.408000000    -0.912000000
H    -1.948000000     4.373000000    -4.315000000
C     0.980000000     4.043000000    -2.869000000
H     0.945000000     5.038000000    -2.433000000
C     2.065000000     3.190000000    -2.704000000
C     3.330000000     3.816000000    -2.111000000
H     3.177000000     4.880000000    -1.920000000
H     4.141000000     3.737000000    -2.837000000
C     3.582000000     3.300000000    -0.710000000
C     3.007000000     4.065000000     0.257000000
H     2.447000000     4.955000000    -0.018000000
C     4.231000000     2.097000000    -0.431000000
C     4.396000000     1.711000000     0.908000000
H     4.942000000     0.815000000     1.192000000
C     3.756000000     2.498000000     1.909000000
O     3.626000000     1.931000000     3.170000000
C     2.377000000     1.277000000     3.441000000
C     2.642000000    -0.012000000     4.178000000
C     1.741000000    -0.462000000     5.122000000
H     0.818000000     0.092000000     5.269000000
C     3.797000000    -0.802000000     3.877000000
H     4.548000000    -0.370000000     3.221000000
O     1.576000000     2.168000000     4.194000000
H     1.901000000     1.064000000     2.473000000
C     3.081000000     3.725000000     1.595000000
C     2.216000000     4.501000000     2.473000000
H     2.203000000     5.538000000     2.131000000
H     2.712000000     4.398000000     3.441000000
C     0.819000000     3.882000000     2.669000000
C    -0.263000000     4.565000000     2.051000000
H    -0.100000000     5.489000000     1.502000000
C     0.579000000     2.735000000     3.432000000
C    -0.675000000     2.186000000     3.511000000
H    -0.808000000     1.252000000     4.052000000
C    -1.753000000     2.794000000     2.916000000
O    -2.949000000     2.088000000     3.047000000
C    -3.413000000     1.476000000     1.844000000
C    -3.795000000     0.033000000     2.018000000
C    -3.062000000    -0.825000000     2.801000000
H    -2.202000000    -0.504000000     3.384000000
C    -4.874000000    -0.441000000     1.354000000
H    -5.442000000     0.221000000     0.706000000
O    -4.246000000     2.247000000     1.051000000
H    -2.473000000     1.395000000     1.278000000
C    -1.538000000     3.970000000     2.195000000
C    -2.800000000     4.587000000     1.487000000
H    -2.726000000     5.676000000     1.479000000
H    -3.706000000     4.415000000     2.071000000
C    -2.945000000     3.939000000     0.112000000
C    -3.748000000     2.804000000    -0.027000000
C    -3.923000000     2.212000000    -1.287000000
H    -4.623000000     1.387000000    -1.386000000
C    -3.237000000     2.766000000    -2.322000000
O    -3.299000000     2.122000000    -3.507000000
C    -2.262000000     1.219000000    -3.773000000
H    -1.715000000     1.229000000    -2.819000000
C    -2.705000000    -0.260000000    -3.942000000
C    -1.676000000    -1.161000000    -3.908000000
H    -0.663000000    -0.806000000    -3.740000000
C    -4.033000000    -0.635000000    -3.894000000
H    -4.724000000     0.180000000    -3.694000000
C    -4.374000000    -1.955000000    -3.899000000
O    -5.696000000    -2.319000000    -3.891000000
C    -3.326000000    -2.919000000    -3.966000000
H    -3.519000000    -3.987000000    -3.912000000
C    -1.988000000    -2.553000000    -3.881000000
O    -1.001000000    -3.526000000    -3.846000000
C     0.021000000    -3.519000000    -4.713000000
C     1.296000000    -3.558000000    -4.204000000
H     1.544000000    -3.409000000    -3.157000000
C    -0.246000000    -3.703000000    -6.111000000
H    -1.251000000    -3.803000000    -6.514000000
C     0.795000000    -3.651000000    -6.963000000
H     0.648000000    -3.618000000    -8.040000000
C     2.109000000    -3.662000000    -6.475000000
H     2.960000000    -3.619000000    -7.150000000
C     2.325000000    -3.670000000    -5.095000000
O     3.600000000    -3.792000000    -4.604000000
C     4.111000000    -3.015000000    -3.558000000
C     4.797000000    -3.666000000    -2.567000000
H     4.864000000    -4.749000000    -2.624000000
C     5.237000000    -2.886000000    -1.509000000
O     5.770000000    -3.496000000    -0.436000000
C     6.186000000    -3.028000000     0.801000000
C     5.380000000    -3.214000000     1.914000000
H     4.420000000    -3.704000000     1.779000000
C     7.391000000    -2.379000000     0.922000000
H     8.037000000    -2.097000000     0.094000000
C     7.783000000    -1.866000000     2.204000000
H     8.720000000    -1.352000000     2.406000000
C     6.924000000    -2.005000000     3.266000000
H     7.192000000    -1.709000000     4.277000000
C     5.800000000    -2.752000000     3.141000000
O     5.053000000    -2.963000000     4.234000000
C     3.996000000    -2.037000000     4.536000000
C     3.084000000    -2.462000000     5.524000000
H     3.215000000    -3.411000000     6.038000000
C     1.956000000    -1.676000000     5.791000000
O     1.084000000    -2.101000000     6.771000000
C    -0.352000000    -2.096000000     6.538000000
C    -0.771000000    -2.641000000     5.311000000
H    -0.048000000    -3.176000000     4.700000000
C    -1.284000000    -1.569000000     7.425000000
H    -0.939000000    -1.102000000     8.344000000
C    -2.683000000    -1.603000000     7.059000000
H    -3.369000000    -1.344000000     7.860000000
C    -3.057000000    -2.033000000     5.836000000
H    -4.129000000    -2.009000000     5.657000000
C    -2.162000000    -2.503000000     4.938000000
O    -2.609000000    -2.983000000     3.796000000
C    -3.423000000    -2.178000000     2.937000000
C    -4.572000000    -2.634000000     2.270000000
H    -4.749000000    -3.706000000     2.238000000
C    -5.263000000    -1.779000000     1.480000000
O    -6.368000000    -2.254000000     0.849000000
C    -6.832000000    -1.956000000    -0.453000000
C    -8.097000000    -1.412000000    -0.681000000
H    -8.802000000    -1.210000000     0.122000000
C    -8.547000000    -1.185000000    -1.942000000
H    -9.591000000    -0.913000000    -2.073000000
C    -7.751000000    -1.565000000    -3.077000000
H    -8.082000000    -1.416000000    -4.101000000
C    -6.466000000    -2.092000000    -2.829000000
C    -5.994000000    -2.218000000    -1.510000000
H    -4.965000000    -2.485000000    -1.279000000
O    -5.609000000    -8.335000000     0.305000000
H    -5.772000000    -8.240000000    -0.634000000
H    -4.984000000    -7.640000000     0.511000000
O     1.875000000    -5.914000000    -0.939000000
H     1.060000000    -5.701000000    -0.484000000
H     2.462000000    -6.221000000    -0.248000000
O     0.883000000    -5.448000000     5.027000000
H     1.483000000    -5.308000000     4.294000000
H     1.441000000    -5.409000000     5.804000000
O    -2.208000000    -9.697000000     3.753000000
H    -1.269000000    -9.538000000     3.660000000
H    -2.329000000    -9.879000000     4.685000000
O     1.432000000   -10.362000000    -1.564000000
H     2.179000000   -10.849000000    -1.216000000
H     1.579000000    -9.460000000    -1.278000000
O    -2.934000000    -9.902000000    -1.989000000
H    -3.780000000    -9.475000000    -2.127000000
H    -2.938000000   -10.149000000    -1.064000000
O     2.707000000    -6.831000000    -3.450000000
H     2.825000000    -7.731000000    -3.147000000
H     2.533000000    -6.330000000    -2.653000000
O    -1.601000000    -7.298000000    -5.201000000
H    -0.664000000    -7.265000000    -5.393000000
H    -1.661000000    -7.115000000    -4.263000000
O     2.296000000    -5.243000000     2.664000000
H     1.504000000    -5.038000000     2.166000000
H     2.878000000    -5.659000000     2.028000000
O    -3.929000000    -5.354000000     5.063000000
H    -3.272000000    -5.381000000     4.368000000
H    -4.762000000    -5.481000000     4.610000000
O     0.364000000    -7.874000000     0.722000000
H     0.355000000    -6.918000000     0.763000000
H    -0.559000000    -8.122000000     0.686000000
O     0.357000000    -8.522000000     3.484000000
H     0.498000000    -7.673000000     3.903000000
H     0.667000000    -8.400000000     2.586000000
O    -3.959000000    -5.902000000     0.802000000
H    -3.231000000    -5.701000000     0.215000000
H    -3.640000000    -5.660000000     1.671000000
O    -6.232000000    -5.522000000    -3.858000000
H    -7.152000000    -5.419000000    -3.615000000
H    -5.750000000    -5.054000000    -3.175000000
O     3.791000000    -7.176000000     0.844000000
H     4.016000000    -7.564000000    -0.002000000
H     3.889000000    -7.894000000     1.470000000
O    -2.314000000    -9.049000000     1.151000000
H    -2.672000000    -9.849000000     0.767000000
H    -2.453000000    -9.153000000     2.093000000
O    -1.660000000    -6.768000000    -2.588000000
H    -1.307000000    -6.116000000    -1.981000000
H    -1.931000000    -7.495000000    -2.028000000
O    -1.969000000    -6.285000000     3.045000000
H    -1.462000000    -5.733000000     2.450000000
H    -2.007000000    -7.136000000     2.609000000
O    -4.708000000    -4.936000000    -1.736000000
H    -3.755000000    -4.843000000    -1.719000000
H    -4.909000000    -5.487000000    -0.979000000
