201
-1223.48715
C     5.504000000    -1.444000000     0.234000000
H     5.717000000    -0.876000000     1.137000000
C     4.735000000    -0.874000000    -0.815000000
C     4.290000000    -1.735000000    -1.869000000
H     3.694000000    -1.265000000    -2.648000000
C     4.205000000     0.606000000    -0.841000000
O     4.981000000     1.550000000    -0.014000000
H     3.133000000     0.641000000    -0.600000000
O     4.198000000     1.192000000    -2.168000000
C     3.111000000     1.939000000    -2.627000000
C     2.093000000     1.264000000    -3.324000000
H     2.281000000     0.278000000    -3.741000000
C     0.866000000     1.860000000    -3.698000000
O    -0.010000000     1.138000000    -4.450000000
C     0.611000000     3.198000000    -3.290000000
C    -0.664000000     3.901000000    -3.855000000
H    -0.483000000     4.978000000    -3.852000000
C    -1.734000000     3.633000000    -2.847000000
C    -1.951000000     4.433000000    -1.709000000
H    -1.376000000     5.350000000    -1.609000000
H    -0.738000000     3.604000000    -4.903000000
C     1.597000000     3.844000000    -2.543000000
H     1.349000000     4.881000000    -2.334000000
C     2.860000000     3.275000000    -2.250000000
C     3.702000000     3.962000000    -1.297000000
H     3.561000000     5.043000000    -1.358000000
H     4.746000000     3.836000000    -1.591000000
C     3.562000000     3.521000000     0.147000000
C     2.676000000     4.172000000     0.949000000
H     2.041000000     4.920000000     0.481000000
C     4.258000000     2.477000000     0.699000000
C     4.118000000     2.104000000     2.023000000
H     4.598000000     1.271000000     2.530000000
C     3.139000000     2.687000000     2.788000000
O     2.619000000     1.887000000     3.801000000
C     1.314000000     1.235000000     3.475000000
C     1.367000000    -0.216000000     4.065000000
C     0.274000000    -1.096000000     4.071000000
H    -0.693000000    -0.713000000     3.755000000
C     2.606000000    -0.780000000     4.381000000
H     3.504000000    -0.174000000     4.291000000
O     0.249000000     1.907000000     4.159000000
H     1.198000000     1.231000000     2.382000000
C     2.408000000     3.754000000     2.296000000
C     1.309000000     4.441000000     3.054000000
H     1.307000000     5.460000000     2.660000000
H     1.404000000     4.322000000     4.135000000
C    -0.099000000     3.821000000     2.716000000
C    -0.940000000     4.519000000     1.784000000
H    -0.520000000     5.304000000     1.161000000
C    -0.594000000     2.723000000     3.401000000
C    -1.976000000     2.450000000     3.381000000
H    -2.407000000     1.677000000     4.013000000
C    -2.741000000     3.101000000     2.413000000
O    -4.048000000     2.614000000     2.237000000
C    -4.337000000     1.742000000     1.161000000
C    -5.178000000     0.458000000     1.386000000
C    -5.067000000    -0.321000000     2.555000000
H    -4.447000000     0.055000000     3.364000000
C    -5.843000000    -0.056000000     0.299000000
H    -5.892000000     0.445000000    -0.665000000
O    -4.658000000     2.563000000    -0.011000000
H    -3.418000000     1.253000000     0.808000000
C    -2.297000000     4.132000000     1.614000000
C    -3.046000000     4.849000000     0.527000000
H    -2.604000000     5.839000000     0.402000000
H    -4.103000000     4.932000000     0.789000000
C    -2.922000000     4.115000000    -0.769000000
C    -3.709000000     2.974000000    -0.946000000
C    -3.503000000     2.161000000    -2.039000000
H    -4.162000000     1.304000000    -2.157000000
C    -2.547000000     2.533000000    -2.981000000
O    -2.372000000     1.554000000    -3.983000000
C    -1.180000000     0.672000000    -3.781000000
H    -0.915000000     0.523000000    -2.724000000
C    -1.556000000    -0.734000000    -4.300000000
C    -0.477000000    -1.611000000    -4.567000000
H     0.542000000    -1.230000000    -4.577000000
C    -2.840000000    -1.211000000    -4.392000000
H    -3.635000000    -0.511000000    -4.147000000
C    -3.104000000    -2.507000000    -4.692000000
O    -4.383000000    -3.026000000    -4.556000000
C    -2.068000000    -3.337000000    -4.990000000
H    -2.369000000    -4.372000000    -5.137000000
C    -0.777000000    -2.911000000    -4.948000000
O     0.215000000    -3.852000000    -5.297000000
C     1.567000000    -3.557000000    -5.254000000
C     2.279000000    -3.889000000    -4.098000000
H     1.782000000    -4.408000000    -3.282000000
C     2.156000000    -2.817000000    -6.273000000
H     1.653000000    -2.462000000    -7.169000000
C     3.485000000    -2.386000000    -6.188000000
H     3.996000000    -1.784000000    -6.935000000
C     4.180000000    -2.770000000    -5.040000000
H     5.229000000    -2.519000000    -4.903000000
C     3.581000000    -3.498000000    -4.027000000
O     4.294000000    -3.890000000    -2.937000000
C     4.625000000    -3.065000000    -1.911000000
C     5.378000000    -3.572000000    -0.862000000
H     5.637000000    -4.625000000    -0.791000000
C     5.739000000    -2.789000000     0.225000000
O     6.523000000    -3.345000000     1.133000000
C     6.445000000    -3.006000000     2.434000000
C     5.265000000    -3.057000000     3.144000000
H     4.438000000    -3.548000000     2.638000000
C     7.578000000    -2.566000000     3.117000000
H     8.564000000    -2.578000000     2.660000000
C     7.511000000    -2.113000000     4.447000000
H     8.383000000    -1.723000000     4.964000000
C     6.267000000    -2.155000000     5.125000000
H     6.272000000    -1.823000000     6.160000000
C     5.124000000    -2.593000000     4.446000000
O     3.959000000    -2.667000000     5.176000000
C     2.770000000    -2.081000000     4.780000000
C     1.694000000    -2.925000000     4.847000000
H     1.913000000    -3.949000000     5.141000000
C     0.402000000    -2.402000000     4.530000000
O    -0.724000000    -3.205000000     4.451000000
C    -1.924000000    -2.731000000     4.985000000
C    -3.057000000    -2.653000000     4.121000000
H    -3.013000000    -3.043000000     3.107000000
C    -2.031000000    -2.255000000     6.318000000
H    -1.166000000    -2.234000000     6.977000000
C    -3.250000000    -1.780000000     6.729000000
H    -3.275000000    -1.407000000     7.749000000
C    -4.377000000    -1.906000000     5.987000000
H    -5.307000000    -1.633000000     6.479000000
C    -4.265000000    -2.318000000     4.640000000
O    -5.414000000    -2.317000000     3.798000000
C    -5.669000000    -1.550000000     2.695000000
C    -6.299000000    -2.055000000     1.607000000
H    -6.590000000    -3.096000000     1.493000000
C    -6.328000000    -1.339000000     0.388000000
O    -6.972000000    -2.035000000    -0.715000000
C    -6.661000000    -1.788000000    -2.057000000
C    -7.491000000    -0.974000000    -2.812000000
H    -8.280000000    -0.331000000    -2.429000000
C    -7.396000000    -0.897000000    -4.185000000
H    -8.118000000    -0.393000000    -4.822000000
C    -6.318000000    -1.541000000    -4.761000000
H    -6.286000000    -1.476000000    -5.846000000
C    -5.383000000    -2.225000000    -3.994000000
C    -5.635000000    -2.375000000    -2.670000000
H    -5.020000000    -3.106000000    -2.152000000
O     4.901000000    -9.781000000     0.985000000
H     4.122000000    -9.463000000     1.443000000
H     5.296000000    -8.994000000     0.611000000
O     6.914000000    -5.403000000    -3.555000000
H     7.627000000    -4.893000000    -3.941000000
H     6.444000000    -4.777000000    -3.004000000
O     0.968000000   -10.872000000    -2.369000000
H     0.320000000   -10.782000000    -3.068000000
H     1.028000000    -9.998000000    -1.984000000
O     1.275000000    -8.520000000     1.187000000
H     1.264000000    -9.400000000     1.564000000
H     1.616000000    -7.963000000     1.887000000
O     5.566000000    -7.313000000     0.381000000
H     6.443000000    -7.153000000     0.729000000
H     4.983000000    -6.836000000     0.972000000
O    -1.409000000    -7.544000000    -5.008000000
H    -1.455000000    -7.138000000    -4.142000000
H    -2.319000000    -7.590000000    -5.300000000
O    -1.413000000    -6.045000000    -2.528000000
H    -0.547000000    -5.799000000    -2.203000000
H    -2.016000000    -5.765000000    -1.840000000
O     4.265000000    -8.158000000    -1.951000000
H     3.334000000    -8.147000000    -1.728000000
H     4.700000000    -7.793000000    -1.181000000
O     1.395000000    -6.953000000     4.655000000
H     0.979000000    -6.506000000     3.917000000
H     0.701000000    -7.499000000     5.026000000
O     3.612000000    -6.570000000     1.949000000
H     3.263000000    -6.347000000     2.811000000
H     3.107000000    -6.033000000     1.339000000
O     1.560000000    -8.217000000    -1.361000000
H     1.446000000    -8.389000000    -0.426000000
H     1.243000000    -7.322000000    -1.481000000
O     0.695000000    -6.652000000    -6.157000000
H     0.877000000    -5.913000000    -5.576000000
H     0.008000000    -7.146000000    -5.709000000
O    -2.362000000    -6.013000000     2.933000000
H    -2.622000000    -6.839000000     3.339000000
H    -1.416000000    -6.093000000     2.810000000
O     5.727000000    -8.155000000     3.836000000
H     5.776000000    -7.440000000     4.471000000
H     5.459000000    -7.732000000     3.020000000
O     0.367000000    -5.494000000     2.625000000
H     0.106000000    -4.603000000     2.855000000
H     0.959000000    -5.385000000     1.880000000
O     4.318000000    -6.852000000    -4.332000000
H     5.168000000    -6.438000000    -4.188000000
H     4.228000000    -7.472000000    -3.609000000
O    -2.653000000    -5.367000000     0.239000000
H    -1.751000000    -5.164000000    -0.008000000
H    -2.624000000    -5.471000000     1.190000000
O    -1.965000000    -9.742000000    -0.729000000
H    -1.010000000    -9.691000000    -0.673000000
H    -2.275000000    -8.989000000    -0.226000000
O    -1.437000000    -9.105000000     2.389000000
H    -1.427000000   -10.058000000     2.480000000
H    -0.659000000    -8.906000000     1.868000000
