201
-1218.74480
C     4.987000000    -1.143000000    -1.158000000
H     5.175000000    -0.697000000    -0.185000000
C     4.313000000    -0.444000000    -2.121000000
C     4.157000000    -1.082000000    -3.329000000
H     3.659000000    -0.527000000    -4.120000000
C     3.766000000     0.913000000    -1.830000000
O     4.587000000     1.665000000    -0.966000000
H     2.807000000     0.715000000    -1.329000000
O     3.475000000     1.688000000    -3.035000000
C     2.384000000     2.356000000    -3.113000000
C     1.435000000     1.782000000    -3.897000000
H     1.754000000     0.889000000    -4.428000000
C     0.159000000     2.378000000    -3.841000000
O    -0.898000000     1.602000000    -4.381000000
C    -0.172000000     3.504000000    -3.142000000
C    -1.504000000     4.166000000    -3.211000000
H    -1.434000000     5.251000000    -3.117000000
C    -2.428000000     3.622000000    -2.083000000
C    -2.518000000     4.332000000    -0.824000000
H    -1.870000000     5.195000000    -0.695000000
H    -2.022000000     4.026000000    -4.163000000
C     0.868000000     4.090000000    -2.382000000
H     0.693000000     5.018000000    -1.845000000
C     2.198000000     3.543000000    -2.401000000
C     3.340000000     4.205000000    -1.567000000
H     3.296000000     5.293000000    -1.486000000
H     4.268000000     3.935000000    -2.075000000
C     3.339000000     3.671000000    -0.215000000
C     2.718000000     4.347000000     0.840000000
H     2.332000000     5.349000000     0.673000000
C     3.957000000     2.403000000     0.035000000
C     4.039000000     1.871000000     1.287000000
H     4.552000000     0.916000000     1.365000000
C     3.330000000     2.487000000     2.304000000
O     3.162000000     1.717000000     3.457000000
C     1.990000000     0.929000000     3.605000000
C     2.197000000    -0.490000000     4.144000000
C     1.074000000    -1.212000000     4.638000000
H     0.089000000    -0.753000000     4.623000000
C     3.385000000    -1.070000000     3.913000000
H     4.224000000    -0.515000000     3.501000000
O     1.056000000     1.560000000     4.372000000
H     1.437000000     0.793000000     2.663000000
C     2.691000000     3.707000000     2.067000000
C     1.842000000     4.347000000     3.175000000
H     1.697000000     5.426000000     3.087000000
H     2.338000000     4.184000000     4.134000000
C     0.440000000     3.670000000     3.123000000
C    -0.671000000     4.288000000     2.462000000
H    -0.509000000     5.264000000     2.012000000
C     0.155000000     2.499000000     3.889000000
C    -1.142000000     1.972000000     3.958000000
H    -1.223000000     1.010000000     4.458000000
C    -2.219000000     2.582000000     3.218000000
O    -3.456000000     1.843000000     3.227000000
C    -3.758000000     1.182000000     1.945000000
C    -4.384000000    -0.184000000     2.153000000
C    -4.076000000    -0.836000000     3.370000000
H    -3.500000000    -0.485000000     4.223000000
C    -5.253000000    -0.787000000     1.262000000
H    -5.461000000    -0.270000000     0.328000000
O    -4.524000000     2.011000000     1.045000000
H    -2.769000000     1.036000000     1.487000000
C    -1.995000000     3.748000000     2.508000000
C    -3.142000000     4.422000000     1.626000000
H    -3.010000000     5.488000000     1.431000000
H    -4.053000000     4.318000000     2.219000000
C    -3.174000000     3.773000000     0.220000000
C    -3.890000000     2.632000000     0.020000000
C    -3.853000000     1.932000000    -1.201000000
H    -4.305000000     0.949000000    -1.306000000
C    -3.085000000     2.419000000    -2.249000000
O    -2.929000000     1.607000000    -3.370000000
C    -1.703000000     0.866000000    -3.456000000
H    -1.215000000     0.864000000    -2.470000000
C    -2.057000000    -0.540000000    -3.896000000
C    -1.034000000    -1.293000000    -4.494000000
H    -0.022000000    -0.899000000    -4.537000000
C    -3.315000000    -1.061000000    -3.665000000
H    -4.079000000    -0.440000000    -3.203000000
C    -3.612000000    -2.324000000    -4.133000000
O    -4.917000000    -2.802000000    -4.051000000
C    -2.632000000    -3.108000000    -4.702000000
H    -2.862000000    -4.143000000    -4.940000000
C    -1.324000000    -2.610000000    -4.876000000
O    -0.395000000    -3.434000000    -5.341000000
C     0.758000000    -3.003000000    -5.875000000
C     1.956000000    -3.141000000    -5.138000000
H     1.796000000    -3.567000000    -4.151000000
C     0.914000000    -2.610000000    -7.175000000
H     0.009000000    -2.377000000    -7.731000000
C     2.191000000    -2.305000000    -7.700000000
H     2.237000000    -1.894000000    -8.705000000
C     3.351000000    -2.532000000    -6.941000000
H     4.325000000    -2.407000000    -7.408000000
C     3.220000000    -2.855000000    -5.625000000
O     4.281000000    -3.078000000    -4.785000000
C     4.524000000    -2.388000000    -3.590000000
C     5.218000000    -3.139000000    -2.618000000
H     5.562000000    -4.170000000    -2.631000000
C     5.520000000    -2.464000000    -1.399000000
O     6.287000000    -3.175000000    -0.477000000
C     6.430000000    -2.695000000     0.759000000
C     5.548000000    -3.197000000     1.764000000
H     4.880000000    -4.002000000     1.469000000
C     7.354000000    -1.686000000     1.080000000
H     7.933000000    -1.171000000     0.317000000
C     7.418000000    -1.257000000     2.402000000
H     8.167000000    -0.523000000     2.687000000
C     6.553000000    -1.785000000     3.358000000
H     6.631000000    -1.444000000     4.387000000
C     5.586000000    -2.660000000     3.031000000
O     4.743000000    -3.011000000     3.976000000
C     3.541000000    -2.367000000     4.287000000
C     2.528000000    -3.113000000     4.887000000
H     2.635000000    -4.141000000     5.225000000
C     1.272000000    -2.545000000     4.952000000
O     0.205000000    -3.438000000     5.325000000
C    -0.944000000    -2.941000000     5.835000000
C    -2.156000000    -3.167000000     5.095000000
H    -2.111000000    -3.804000000     4.215000000
C    -0.948000000    -2.051000000     6.961000000
H     0.003000000    -1.851000000     7.449000000
C    -2.154000000    -1.578000000     7.466000000
H    -2.131000000    -0.868000000     8.289000000
C    -3.374000000    -1.820000000     6.778000000
H    -4.330000000    -1.373000000     7.037000000
C    -3.358000000    -2.641000000     5.600000000
O    -4.502000000    -2.756000000     4.785000000
C    -4.673000000    -2.104000000     3.582000000
C    -5.479000000    -2.700000000     2.609000000
H    -5.826000000    -3.728000000     2.677000000
C    -5.783000000    -2.068000000     1.411000000
O    -6.522000000    -2.666000000     0.395000000
C    -6.648000000    -2.315000000    -0.953000000
C    -7.834000000    -1.737000000    -1.365000000
H    -8.604000000    -1.487000000    -0.640000000
C    -7.987000000    -1.404000000    -2.646000000
H    -8.893000000    -0.910000000    -2.987000000
C    -6.976000000    -1.648000000    -3.546000000
H    -7.038000000    -1.185000000    -4.528000000
C    -5.879000000    -2.365000000    -3.178000000
C    -5.679000000    -2.642000000    -1.842000000
H    -4.780000000    -3.213000000    -1.627000000
O     2.484000000    -7.512000000     5.178000000
H     2.379000000    -6.788000000     4.560000000
H     3.043000000    -8.139000000     4.719000000
O    -2.879000000    -8.760000000    -1.822000000
H    -2.831000000    -8.139000000    -2.548000000
H    -3.283000000    -8.265000000    -1.109000000
O     2.526000000    -5.362000000    -0.552000000
H     2.076000000    -5.634000000     0.248000000
H     1.889000000    -4.816000000    -1.012000000
O    -0.023000000    -6.992000000     6.582000000
H    -0.313000000    -7.887000000     6.756000000
H     0.309000000    -7.017000000     5.685000000
O     2.807000000    -8.887000000     0.602000000
H     2.244000000    -8.964000000     1.372000000
H     2.874000000    -9.780000000     0.264000000
O     1.247000000    -9.918000000     2.807000000
H     0.531000000   -10.510000000     3.037000000
H     1.895000000   -10.045000000     3.500000000
O     5.608000000    -6.841000000     3.486000000
H     6.059000000    -6.833000000     4.330000000
H     5.101000000    -6.029000000     3.477000000
O    -1.603000000    -5.500000000    -2.803000000
H    -2.148000000    -5.968000000    -3.436000000
H    -1.652000000    -4.584000000    -3.077000000
O     2.990000000    -5.667000000     2.752000000
H     3.143000000    -6.393000000     2.147000000
H     2.198000000    -5.244000000     2.422000000
O     5.268000000    -5.917000000    -0.545000000
H     5.851000000    -5.162000000    -0.469000000
H     4.390000000    -5.539000000    -0.582000000
O    -4.858000000    -6.660000000     4.805000000
H    -5.569000000    -6.796000000     4.178000000
H    -4.170000000    -6.231000000     4.296000000
O    -0.559000000    -7.614000000     0.417000000
H    -0.264000000    -6.792000000     0.810000000
H    -1.478000000    -7.686000000     0.676000000
O     0.162000000    -7.232000000     3.438000000
H     0.442000000    -8.070000000     3.070000000
H     0.447000000    -6.582000000     2.796000000
O     2.872000000    -7.786000000    -1.861000000
H     2.839000000    -8.413000000    -1.138000000
H     2.814000000    -6.930000000    -1.438000000
O    -2.685000000    -5.976000000     3.541000000
H    -2.271000000    -5.558000000     2.786000000
H    -1.961000000    -6.390000000     4.011000000
O    -0.306000000   -10.415000000     0.231000000
H    -0.494000000    -9.541000000    -0.110000000
H     0.488000000   -10.304000000     0.753000000
O     0.158000000    -7.611000000    -3.114000000
H    -0.509000000    -6.963000000    -2.889000000
H     0.913000000    -7.375000000    -2.574000000
O    -2.808000000    -5.771000000    -0.537000000
H    -2.318000000    -5.366000000     0.178000000
H    -2.318000000    -5.538000000    -1.326000000
O    -4.022000000    -7.789000000     0.291000000
H    -3.639000000    -6.930000000     0.113000000
H    -4.854000000    -7.595000000     0.724000000
