201
-1240.69332
C     4.665000000    -1.367000000     0.021000000
H     4.687000000    -0.783000000     0.937000000
C     4.520000000    -0.658000000    -1.192000000
C     4.466000000    -1.377000000    -2.354000000
H     4.125000000    -0.963000000    -3.299000000
C     4.125000000     0.786000000    -1.227000000
O     4.748000000     1.679000000    -0.294000000
H     3.079000000     0.697000000    -0.899000000
O     4.283000000     1.365000000    -2.580000000
C     3.132000000     2.070000000    -3.009000000
C     2.225000000     1.405000000    -3.781000000
H     2.452000000     0.472000000    -4.290000000
C     0.996000000     2.010000000    -4.219000000
O     0.184000000     1.220000000    -4.910000000
C     0.692000000     3.214000000    -3.703000000
C    -0.651000000     3.775000000    -4.066000000
H    -0.642000000     4.858000000    -4.207000000
C    -1.743000000     3.320000000    -3.079000000
C    -2.034000000     4.004000000    -1.931000000
H    -1.474000000     4.926000000    -1.801000000
H    -1.006000000     3.388000000    -5.024000000
C     1.477000000     3.817000000    -2.759000000
H     1.294000000     4.819000000    -2.379000000
C     2.781000000     3.353000000    -2.438000000
C     3.664000000     4.120000000    -1.423000000
H     3.501000000     5.197000000    -1.350000000
H     4.752000000     4.090000000    -1.512000000
C     3.240000000     3.663000000    -0.058000000
C     2.292000000     4.286000000     0.717000000
H     1.825000000     5.209000000     0.384000000
C     3.931000000     2.528000000     0.510000000
C     3.561000000     2.013000000     1.738000000
H     3.950000000     1.067000000     2.106000000
C     2.568000000     2.663000000     2.492000000
O     2.116000000     1.978000000     3.631000000
C     0.738000000     1.452000000     3.916000000
C     0.920000000     0.161000000     4.718000000
C    -0.168000000    -0.357000000     5.337000000
H    -1.093000000     0.215000000     5.341000000
C     2.194000000    -0.492000000     4.830000000
H     3.068000000    -0.197000000     4.256000000
O    -0.239000000     2.365000000     4.477000000
H     0.374000000     1.150000000     2.923000000
C     2.013000000     3.838000000     1.983000000
C     0.998000000     4.571000000     2.840000000
H     0.958000000     5.599000000     2.473000000
H     1.240000000     4.738000000     3.891000000
C    -0.432000000     3.989000000     2.706000000
C    -1.240000000     4.488000000     1.671000000
H    -0.833000000     5.232000000     0.990000000
C    -0.983000000     3.034000000     3.566000000
C    -2.205000000     2.443000000     3.262000000
H    -2.577000000     1.668000000     3.927000000
C    -2.943000000     2.915000000     2.245000000
O    -4.079000000     2.247000000     1.923000000
C    -3.808000000     1.280000000     0.890000000
C    -4.398000000    -0.029000000     1.301000000
C    -4.588000000    -0.287000000     2.654000000
H    -4.378000000     0.387000000     3.480000000
C    -4.759000000    -1.065000000     0.372000000
H    -4.748000000    -0.778000000    -0.676000000
O    -4.468000000     1.841000000    -0.326000000
H    -2.722000000     1.142000000     0.787000000
C    -2.487000000     3.920000000     1.339000000
C    -3.252000000     4.406000000     0.209000000
H    -3.062000000     5.470000000     0.056000000
H    -4.324000000     4.422000000     0.412000000
C    -2.998000000     3.598000000    -1.050000000
C    -3.672000000     2.383000000    -1.300000000
C    -3.400000000     1.655000000    -2.467000000
H    -3.838000000     0.660000000    -2.461000000
C    -2.421000000     2.140000000    -3.308000000
O    -2.150000000     1.327000000    -4.432000000
C    -0.950000000     0.591000000    -4.363000000
H    -0.711000000     0.377000000    -3.311000000
C    -1.156000000    -0.829000000    -4.878000000
C    -0.144000000    -1.410000000    -5.627000000
H     0.750000000    -0.838000000    -5.861000000
C    -2.221000000    -1.613000000    -4.487000000
H    -2.970000000    -1.110000000    -3.881000000
C    -2.228000000    -2.957000000    -4.815000000
O    -3.091000000    -3.871000000    -4.177000000
C    -1.220000000    -3.516000000    -5.528000000
H    -1.212000000    -4.574000000    -5.780000000
C    -0.150000000    -2.739000000    -6.008000000
O     0.930000000    -3.366000000    -6.631000000
C     2.233000000    -3.010000000    -6.249000000
C     2.730000000    -3.343000000    -4.982000000
H     2.242000000    -4.067000000    -4.334000000
C     3.064000000    -2.343000000    -7.213000000
H     2.662000000    -2.130000000    -8.200000000
C     4.318000000    -1.941000000    -6.816000000
H     4.976000000    -1.312000000    -7.411000000
C     4.797000000    -2.254000000    -5.557000000
H     5.855000000    -2.074000000    -5.384000000
C     4.065000000    -3.036000000    -4.677000000
O     4.532000000    -3.478000000    -3.454000000
C     4.668000000    -2.747000000    -2.330000000
C     4.909000000    -3.426000000    -1.149000000
H     4.991000000    -4.509000000    -1.102000000
C     4.898000000    -2.715000000     0.025000000
O     4.992000000    -3.424000000     1.192000000
C     5.243000000    -2.852000000     2.431000000
C     4.199000000    -2.732000000     3.331000000
H     3.221000000    -3.122000000     3.060000000
C     6.495000000    -2.312000000     2.716000000
H     7.230000000    -2.374000000     1.917000000
C     6.669000000    -1.778000000     4.008000000
H     7.544000000    -1.172000000     4.228000000
C     5.671000000    -1.802000000     5.031000000
H     5.891000000    -1.434000000     6.030000000
C     4.389000000    -2.319000000     4.618000000
O     3.381000000    -2.409000000     5.547000000
C     2.258000000    -1.671000000     5.585000000
C     1.070000000    -2.240000000     6.101000000
H     1.079000000    -3.067000000     6.806000000
C    -0.115000000    -1.568000000     6.026000000
O    -1.175000000    -2.117000000     6.680000000
C    -2.460000000    -1.724000000     6.640000000
C    -3.232000000    -1.806000000     5.452000000
H    -2.824000000    -2.331000000     4.592000000
C    -3.029000000    -1.146000000     7.766000000
H    -2.618000000    -1.152000000     8.772000000
C    -4.368000000    -0.727000000     7.780000000
H    -4.847000000    -0.317000000     8.666000000
C    -5.080000000    -0.850000000     6.546000000
H    -6.094000000    -0.459000000     6.574000000
C    -4.556000000    -1.459000000     5.462000000
O    -5.348000000    -1.734000000     4.341000000
C    -5.010000000    -1.556000000     3.034000000
C    -5.159000000    -2.581000000     2.150000000
H    -5.550000000    -3.550000000     2.449000000
C    -5.044000000    -2.352000000     0.764000000
O    -5.484000000    -3.352000000    -0.106000000
C    -5.486000000    -3.209000000    -1.460000000
C    -6.521000000    -2.689000000    -2.197000000
H    -7.345000000    -2.316000000    -1.595000000
C    -6.516000000    -2.707000000    -3.556000000
H    -7.401000000    -2.369000000    -4.090000000
C    -5.348000000    -3.115000000    -4.257000000
H    -5.305000000    -3.242000000    -5.336000000
C    -4.195000000    -3.452000000    -3.500000000
C    -4.292000000    -3.554000000    -2.088000000
H    -3.535000000    -4.013000000    -1.457000000
O     2.456000000    -8.132000000     1.967000000
H     2.754000000    -7.290000000     1.620000000
H     3.262000000    -8.625000000     2.122000000
O    -6.855000000    -5.966000000     0.941000000
H    -6.604000000    -6.867000000     1.141000000
H    -6.088000000    -5.594000000     0.506000000
O    -0.388000000    -9.599000000    -2.729000000
H     0.416000000    -9.208000000    -3.071000000
H    -0.588000000    -9.088000000    -1.945000000
O    -6.607000000    -5.411000000     4.045000000
H    -6.941000000    -6.296000000     4.195000000
H    -6.307000000    -5.419000000     3.136000000
O     2.309000000    -5.492000000     0.772000000
H     1.736000000    -4.956000000     1.320000000
H     1.806000000    -5.637000000    -0.029000000
O    -5.675000000    -8.124000000     1.504000000
H    -6.162000000    -8.553000000     2.208000000
H    -4.776000000    -8.437000000     1.610000000
O    -4.439000000    -7.521000000    -1.005000000
H    -3.676000000    -7.499000000    -1.582000000
H    -4.580000000    -8.451000000    -0.829000000
O     4.969000000    -6.721000000     1.221000000
H     4.551000000    -5.862000000     1.152000000
H     5.845000000    -6.534000000     1.558000000
O     3.517000000    -6.114000000     6.160000000
H     2.998000000    -5.686000000     5.479000000
H     4.426000000    -5.949000000     5.907000000
O    -3.808000000    -5.510000000     5.610000000
H    -3.320000000    -5.545000000     4.788000000
H    -4.723000000    -5.428000000     5.343000000
O     1.472000000    -4.948000000     4.517000000
H     1.008000000    -5.134000000     3.700000000
H     1.690000000    -4.017000000     4.461000000
O    -1.467000000    -8.042000000    -0.541000000
H    -1.052000000    -7.690000000     0.246000000
H    -1.737000000    -8.927000000    -0.295000000
O     0.331000000    -6.036000000    -1.172000000
H    -0.085000000    -5.289000000    -0.742000000
H    -0.389000000    -6.496000000    -1.602000000
O    -2.374000000    -5.160000000     3.357000000
H    -1.502000000    -4.948000000     3.024000000
H    -2.904000000    -5.294000000     2.572000000
O    -0.309000000    -7.117000000     1.762000000
H    -0.287000000    -6.160000000     1.776000000
H     0.560000000    -7.381000000     2.065000000
O    -2.924000000    -8.702000000     2.086000000
H    -2.318000000    -9.358000000     2.432000000
H    -2.377000000    -7.936000000     1.915000000
O     0.929000000    -5.854000000    -3.761000000
H     0.754000000    -5.689000000    -2.834000000
H     0.133000000    -6.277000000    -4.083000000
O     0.163000000    -6.118000000     6.651000000
H     0.576000000    -5.919000000     5.811000000
H    -0.279000000    -6.955000000     6.508000000
O    -3.759000000    -5.755000000     1.102000000
H    -3.210000000    -5.336000000     0.438000000
H    -4.149000000    -6.504000000     0.651000000
