201
-1236.32744
C     5.455000000     0.223000000     0.368000000
H     5.670000000     0.765000000     1.285000000
C     4.605000000     0.753000000    -0.582000000
C     4.316000000     0.041000000    -1.672000000
H     3.752000000     0.606000000    -2.409000000
C     3.786000000     1.992000000    -0.209000000
O     4.266000000     2.711000000     0.964000000
H     2.808000000     1.501000000    -0.095000000
O     3.777000000     2.924000000    -1.308000000
C     2.621000000     3.599000000    -1.713000000
C     2.004000000     3.071000000    -2.817000000
H     2.469000000     2.323000000    -3.455000000
C     0.691000000     3.323000000    -3.105000000
O     0.032000000     2.638000000    -4.177000000
C    -0.029000000     4.228000000    -2.267000000
C    -1.482000000     4.611000000    -2.631000000
H    -1.746000000     5.647000000    -2.409000000
C    -2.460000000     3.673000000    -2.051000000
C    -2.957000000     3.930000000    -0.774000000
H    -2.651000000     4.855000000    -0.292000000
H    -1.571000000     4.626000000    -3.720000000
C     0.594000000     4.817000000    -1.162000000
H     0.039000000     5.495000000    -0.518000000
C     1.913000000     4.459000000    -0.823000000
C     2.581000000     4.991000000     0.506000000
H     2.122000000     5.938000000     0.797000000
H     3.641000000     5.150000000     0.294000000
C     2.439000000     4.084000000     1.685000000
C     1.266000000     4.251000000     2.475000000
H     0.559000000     5.044000000     2.244000000
C     3.320000000     3.115000000     1.929000000
C     3.132000000     2.166000000     2.952000000
H     3.723000000     1.265000000     3.098000000
C     2.021000000     2.356000000     3.747000000
O     1.778000000     1.186000000     4.546000000
C     0.726000000     0.258000000     4.100000000
C     1.129000000    -1.123000000     4.352000000
C     0.176000000    -2.055000000     4.698000000
H    -0.895000000    -1.876000000     4.739000000
C     2.425000000    -1.552000000     4.189000000
H     3.217000000    -0.916000000     3.801000000
O    -0.501000000     0.597000000     4.742000000
H     0.623000000     0.333000000     3.008000000
C     1.057000000     3.343000000     3.543000000
C    -0.240000000     3.547000000     4.344000000
H    -0.600000000     4.577000000     4.299000000
H    -0.160000000     3.310000000     5.407000000
C    -1.295000000     2.681000000     3.648000000
C    -2.249000000     3.262000000     2.753000000
H    -2.142000000     4.337000000     2.637000000
C    -1.379000000     1.229000000     3.855000000
C    -2.347000000     0.509000000     3.173000000
H    -2.279000000    -0.558000000     3.366000000
C    -3.310000000     1.176000000     2.437000000
O    -4.376000000     0.416000000     1.935000000
C    -4.204000000     0.068000000     0.561000000
C    -4.649000000    -1.388000000     0.431000000
C    -4.390000000    -2.358000000     1.379000000
H    -3.864000000    -2.102000000     2.296000000
C    -5.199000000    -1.860000000    -0.762000000
H    -5.436000000    -1.140000000    -1.541000000
O    -4.973000000     0.934000000    -0.300000000
H    -3.142000000     0.067000000     0.274000000
C    -3.320000000     2.542000000     2.178000000
C    -4.327000000     3.230000000     1.207000000
H    -4.274000000     4.309000000     1.364000000
H    -5.388000000     3.033000000     1.373000000
C    -3.923000000     3.108000000    -0.215000000
C    -4.276000000     1.947000000    -0.886000000
C    -3.624000000     1.610000000    -2.048000000
H    -3.873000000     0.670000000    -2.535000000
C    -2.882000000     2.496000000    -2.768000000
O    -2.325000000     2.185000000    -3.942000000
C    -0.967000000     1.597000000    -3.773000000
H    -0.803000000     1.277000000    -2.734000000
C    -0.810000000     0.285000000    -4.615000000
C     0.403000000     0.039000000    -5.191000000
H     1.246000000     0.722000000    -5.248000000
C    -1.818000000    -0.679000000    -4.625000000
H    -2.658000000    -0.406000000    -3.991000000
C    -1.667000000    -1.861000000    -5.384000000
O    -2.542000000    -2.896000000    -5.292000000
C    -0.442000000    -2.109000000    -6.010000000
H    -0.110000000    -3.074000000    -6.384000000
C     0.575000000    -1.142000000    -5.955000000
O     1.804000000    -1.420000000    -6.530000000
C     3.015000000    -1.000000000    -5.932000000
C     3.438000000    -1.653000000    -4.807000000
H     2.739000000    -2.307000000    -4.291000000
C     3.729000000     0.065000000    -6.538000000
H     3.414000000     0.458000000    -7.501000000
C     4.980000000     0.435000000    -5.987000000
H     5.629000000     1.077000000    -6.578000000
C     5.403000000    -0.211000000    -4.838000000
H     6.340000000     0.061000000    -4.359000000
C     4.636000000    -1.249000000    -4.255000000
O     4.957000000    -1.896000000    -3.103000000
C     5.041000000    -1.156000000    -1.958000000
C     5.881000000    -1.673000000    -1.018000000
H     6.331000000    -2.655000000    -1.136000000
C     6.023000000    -1.039000000     0.227000000
O     7.002000000    -1.462000000     1.135000000
C     6.593000000    -1.526000000     2.439000000
C     5.555000000    -2.363000000     2.681000000
H     5.144000000    -3.023000000     1.921000000
C     7.142000000    -0.712000000     3.483000000
H     7.978000000    -0.065000000     3.230000000
C     6.614000000    -0.743000000     4.752000000
H     7.022000000    -0.126000000     5.548000000
C     5.554000000    -1.690000000     4.981000000
H     5.114000000    -1.804000000     5.968000000
C     5.055000000    -2.466000000     3.941000000
O     4.020000000    -3.334000000     4.232000000
C     2.787000000    -2.850000000     4.414000000
C     1.826000000    -3.739000000     4.778000000
H     2.107000000    -4.780000000     4.909000000
C     0.476000000    -3.391000000     4.834000000
O    -0.500000000    -4.318000000     4.818000000
C    -1.836000000    -4.113000000     4.656000000
C    -2.492000000    -4.443000000     3.492000000
H    -1.896000000    -4.632000000     2.603000000
C    -2.536000000    -3.553000000     5.693000000
H    -1.969000000    -3.277000000     6.578000000
C    -3.912000000    -3.424000000     5.600000000
H    -4.561000000    -3.048000000     6.387000000
C    -4.591000000    -3.921000000     4.461000000
H    -5.668000000    -4.065000000     4.485000000
C    -3.864000000    -4.307000000     3.348000000
O    -4.588000000    -4.618000000     2.212000000
C    -4.736000000    -3.706000000     1.228000000
C    -5.224000000    -4.137000000     0.053000000
H    -5.531000000    -5.174000000    -0.058000000
C    -5.510000000    -3.234000000    -0.947000000
O    -5.971000000    -3.676000000    -2.144000000
C    -5.669000000    -3.187000000    -3.358000000
C    -6.664000000    -2.884000000    -4.306000000
H    -7.705000000    -3.007000000    -4.017000000
C    -6.232000000    -2.416000000    -5.553000000
H    -6.946000000    -1.961000000    -6.235000000
C    -4.889000000    -2.330000000    -5.834000000
H    -4.623000000    -2.027000000    -6.843000000
C    -3.887000000    -2.728000000    -4.959000000
C    -4.281000000    -3.091000000    -3.669000000
H    -3.522000000    -3.429000000    -2.968000000
O     6.851000000    -4.461000000     0.542000000
H     6.798000000    -4.730000000     1.459000000
H     7.505000000    -3.763000000     0.534000000
O     4.304000000    -6.451000000     5.128000000
H     4.409000000    -7.078000000     5.844000000
H     3.849000000    -6.942000000     4.444000000
O    -2.421000000    -8.123000000     2.720000000
H    -2.148000000    -8.860000000     2.174000000
H    -2.255000000    -7.350000000     2.181000000
O     6.643000000    -5.605000000     3.124000000
H     5.713000000    -5.814000000     3.206000000
H     6.984000000    -5.671000000     4.016000000
O     1.288000000    -8.118000000    -4.517000000
H     0.414000000    -7.758000000    -4.365000000
H     1.569000000    -8.434000000    -3.659000000
O     1.030000000    -9.388000000     1.084000000
H     0.149000000    -9.722000000     0.912000000
H     1.331000000    -9.886000000     1.844000000
O     1.458000000    -5.392000000    -5.454000000
H     2.030000000    -6.028000000    -5.025000000
H     1.045000000    -4.917000000    -4.733000000
O     5.668000000    -7.678000000     0.957000000
H     4.819000000    -8.069000000     0.754000000
H     5.455000000    -6.830000000     1.347000000
O     2.494000000    -9.301000000    -2.201000000
H     2.821000000    -9.298000000    -1.302000000
H     1.919000000   -10.065000000    -2.245000000
O     0.460000000    -6.551000000     3.108000000
H     0.382000000    -6.210000000     2.217000000
H     0.056000000    -5.879000000     3.657000000
O    -2.329000000    -6.471000000     0.640000000
H    -2.658000000    -6.600000000    -0.249000000
H    -1.618000000    -5.838000000     0.544000000
O     3.991000000    -7.303000000    -2.985000000
H     4.738000000    -7.437000000    -2.401000000
H     3.347000000    -7.953000000    -2.703000000
O     2.868000000    -7.643000000     0.303000000
H     2.548000000    -6.746000000     0.401000000
H     2.210000000    -8.181000000     0.743000000
O     3.992000000    -5.514000000     2.251000000
H     3.416000000    -5.278000000     1.524000000
H     3.599000000    -5.091000000     3.015000000
O     0.553000000    -6.862000000    -1.326000000
H     1.451000000    -7.022000000    -1.037000000
H     0.206000000    -6.233000000    -0.694000000
O    -1.376000000    -7.645000000    -3.268000000
H    -2.230000000    -7.796000000    -2.863000000
H    -0.848000000    -7.252000000    -2.573000000
O     2.570000000    -8.010000000     3.484000000
H     1.883000000    -7.571000000     2.982000000
H     2.097000000    -8.586000000     4.084000000
O     5.139000000    -4.674000000    -4.521000000
H     5.642000000    -5.015000000    -3.781000000
H     4.487000000    -4.098000000    -4.122000000
O     2.277000000    -4.519000000    -2.653000000
H     2.421000000    -4.512000000    -1.706000000
H     2.743000000    -5.297000000    -2.960000000
