201
-1246.28307
C     5.200000000    -0.533000000     1.514000000
H     4.983000000    -0.142000000     2.505000000
C     4.793000000     0.162000000     0.334000000
C     4.971000000    -0.460000000    -0.883000000
H     4.556000000     0.000000000    -1.776000000
C     4.009000000     1.427000000     0.393000000
O     4.144000000     2.072000000     1.681000000
H     2.972000000     1.188000000     0.116000000
O     4.365000000     2.393000000    -0.602000000
C     3.354000000     3.129000000    -1.202000000
C     2.910000000     2.553000000    -2.398000000
H     3.415000000     1.682000000    -2.810000000
C     1.740000000     3.113000000    -2.969000000
O     1.314000000     2.483000000    -4.161000000
C     1.023000000     4.132000000    -2.368000000
C    -0.273000000     4.692000000    -3.000000000
H    -0.369000000     5.735000000    -2.691000000
C    -1.593000000     3.894000000    -2.663000000
C    -2.332000000     4.290000000    -1.545000000
H    -2.157000000     5.247000000    -1.061000000
H    -0.120000000     4.748000000    -4.080000000
C     1.526000000     4.654000000    -1.140000000
H     1.042000000     5.440000000    -0.566000000
C     2.655000000     4.106000000    -0.532000000
C     3.050000000     4.594000000     0.847000000
H     2.671000000     5.607000000     0.998000000
H     4.134000000     4.535000000     0.965000000
C     2.410000000     3.761000000     1.880000000
C     1.151000000     4.096000000     2.372000000
H     0.800000000     4.983000000     1.850000000
C     2.948000000     2.534000000     2.218000000
C     2.410000000     1.820000000     3.186000000
H     2.945000000     0.936000000     3.521000000
C     1.152000000     2.147000000     3.750000000
O     0.522000000     1.255000000     4.607000000
C    -0.598000000     0.507000000     4.013000000
C    -0.469000000    -0.929000000     4.388000000
C    -1.504000000    -1.621000000     4.987000000
H    -2.487000000    -1.173000000     5.110000000
C     0.781000000    -1.533000000     4.313000000
H     1.645000000    -0.958000000     3.988000000
O    -1.860000000     1.068000000     4.371000000
H    -0.580000000     0.589000000     2.917000000
C     0.494000000     3.292000000     3.306000000
C    -0.775000000     3.783000000     3.877000000
H    -0.886000000     4.869000000     3.840000000
H    -0.922000000     3.400000000     4.889000000
C    -2.012000000     3.079000000     3.133000000
C    -2.638000000     3.794000000     2.062000000
H    -2.074000000     4.671000000     1.756000000
C    -2.485000000     1.804000000     3.483000000
C    -3.567000000     1.242000000     2.758000000
H    -3.793000000     0.197000000     2.955000000
C    -4.125000000     1.943000000     1.706000000
O    -4.918000000     1.227000000     0.891000000
C    -4.352000000     0.608000000    -0.212000000
C    -4.817000000    -0.835000000    -0.278000000
C    -5.148000000    -1.621000000     0.824000000
H    -5.430000000    -1.128000000     1.750000000
C    -4.494000000    -1.448000000    -1.494000000
H    -4.125000000    -0.792000000    -2.279000000
O    -4.658000000     1.416000000    -1.378000000
H    -3.258000000     0.578000000    -0.097000000
C    -3.656000000     3.230000000     1.343000000
C    -4.131000000     3.973000000     0.095000000
H    -3.960000000     5.007000000     0.400000000
H    -5.205000000     3.834000000    -0.044000000
C    -3.323000000     3.459000000    -1.090000000
C    -3.570000000     2.248000000    -1.681000000
C    -2.839000000     1.867000000    -2.822000000
H    -3.165000000     0.940000000    -3.284000000
C    -1.816000000     2.622000000    -3.280000000
O    -1.004000000     2.110000000    -4.247000000
C     0.292000000     1.505000000    -3.949000000
H     0.225000000     1.195000000    -2.896000000
C     0.516000000     0.251000000    -4.758000000
C     1.805000000    -0.168000000    -5.051000000
H     2.652000000     0.349000000    -4.608000000
C    -0.534000000    -0.530000000    -5.192000000
H    -1.569000000    -0.270000000    -4.981000000
C    -0.302000000    -1.681000000    -6.007000000
O    -1.303000000    -2.565000000    -6.344000000
C     0.980000000    -1.968000000    -6.480000000
H     1.141000000    -2.920000000    -6.979000000
C     1.999000000    -1.208000000    -5.982000000
O     3.316000000    -1.521000000    -6.288000000
C     4.350000000    -1.302000000    -5.439000000
C     4.454000000    -2.026000000    -4.276000000
H     3.707000000    -2.742000000    -3.941000000
C     5.337000000    -0.339000000    -5.818000000
H     5.241000000     0.090000000    -6.812000000
C     6.443000000    -0.138000000    -5.044000000
H     7.192000000     0.604000000    -5.306000000
C     6.541000000    -0.823000000    -3.838000000
H     7.427000000    -0.650000000    -3.231000000
C     5.548000000    -1.737000000    -3.439000000
O     5.660000000    -2.316000000    -2.213000000
C     5.620000000    -1.714000000    -0.968000000
C     6.191000000    -2.270000000     0.131000000
H     6.695000000    -3.230000000     0.051000000
C     6.032000000    -1.664000000     1.407000000
O     6.432000000    -2.278000000     2.542000000
C     5.523000000    -2.495000000     3.544000000
C     4.187000000    -2.872000000     3.234000000
H     3.999000000    -3.137000000     2.196000000
C     5.928000000    -2.419000000     4.851000000
H     6.938000000    -2.097000000     5.091000000
C     5.040000000    -2.525000000     5.851000000
H     5.401000000    -2.350000000     6.861000000
C     3.724000000    -2.863000000     5.602000000
H     2.924000000    -3.011000000     6.323000000
C     3.306000000    -3.020000000     4.293000000
O     2.059000000    -3.481000000     4.053000000
C     0.918000000    -2.879000000     4.508000000
C    -0.123000000    -3.606000000     5.060000000
H     0.041000000    -4.631000000     5.383000000
C    -1.351000000    -2.983000000     5.352000000
O    -2.528000000    -3.717000000     5.625000000
C    -3.804000000    -3.389000000     5.160000000
C    -3.948000000    -3.555000000     3.784000000
H    -3.131000000    -3.912000000     3.163000000
C    -4.837000000    -2.995000000     5.976000000
H    -4.696000000    -2.890000000     7.048000000
C    -6.108000000    -2.706000000     5.431000000
H    -6.939000000    -2.542000000     6.113000000
C    -6.351000000    -2.956000000     4.067000000
H    -7.366000000    -2.809000000     3.706000000
C    -5.270000000    -3.355000000     3.253000000
O    -5.432000000    -3.751000000     1.880000000
C    -5.179000000    -2.965000000     0.724000000
C    -4.926000000    -3.613000000    -0.510000000
H    -4.966000000    -4.693000000    -0.629000000
C    -4.543000000    -2.869000000    -1.646000000
O    -4.277000000    -3.583000000    -2.764000000
C    -4.110000000    -3.070000000    -4.004000000
C    -5.216000000    -2.593000000    -4.738000000
H    -6.179000000    -2.507000000    -4.241000000
C    -4.950000000    -2.117000000    -6.011000000
H    -5.819000000    -1.671000000    -6.487000000
C    -3.612000000    -2.083000000    -6.600000000
H    -3.482000000    -1.661000000    -7.594000000
C    -2.566000000    -2.532000000    -5.879000000
C    -2.893000000    -3.146000000    -4.602000000
H    -2.094000000    -3.509000000    -3.960000000
O     1.559000000    -9.957000000    -0.557000000
H     0.936000000   -10.116000000     0.152000000
H     1.225000000    -9.175000000    -0.998000000
O    -2.773000000    -5.626000000     0.983000000
H    -2.133000000    -4.938000000     0.801000000
H    -2.345000000    -6.433000000     0.699000000
O     0.310000000    -7.943000000     3.091000000
H     0.559000000    -7.109000000     2.692000000
H     0.695000000    -7.914000000     3.967000000
O     3.833000000    -7.157000000     3.708000000
H     3.617000000    -7.552000000     2.863000000
H     3.121000000    -7.427000000     4.288000000
O    -1.701000000    -7.953000000     0.051000000
H    -2.279000000    -8.709000000     0.159000000
H    -1.005000000    -8.265000000    -0.527000000
O     4.298000000    -5.507000000     0.771000000
H     4.164000000    -6.424000000     1.011000000
H     3.482000000    -5.250000000     0.340000000
O     1.115000000    -5.570000000     2.006000000
H     1.729000000    -5.186000000     2.632000000
H     1.468000000    -5.336000000     1.148000000
O     6.332000000    -7.276000000    -0.462000000
H     5.934000000    -6.569000000     0.046000000
H     6.868000000    -6.829000000    -1.117000000
O    -1.510000000    -2.905000000     1.606000000
H    -1.042000000    -2.754000000     2.427000000
H    -1.225000000    -2.192000000     1.033000000
O    -0.011000000   -10.275000000     1.552000000
H     0.140000000    -9.451000000     2.016000000
H    -0.896000000   -10.535000000     1.808000000
O     0.530000000    -7.470000000    -1.531000000
H     0.408000000    -6.529000000    -1.401000000
H     0.820000000    -7.550000000    -2.440000000
O     3.482000000    -4.926000000    -2.342000000
H     2.818000000    -4.795000000    -1.666000000
H     3.478000000    -5.870000000    -2.502000000
O     4.954000000    -4.856000000    -4.518000000
H     4.213000000    -4.815000000    -5.122000000
H     4.561000000    -4.768000000    -3.649000000
O     3.342000000    -8.335000000     1.182000000
H     2.508000000    -8.592000000     0.789000000
H     3.931000000    -9.066000000     0.995000000
O     2.519000000    -8.402000000    -4.956000000
H     2.124000000    -9.247000000    -4.741000000
H     1.904000000    -7.755000000    -4.611000000
O    -2.243000000    -6.027000000    -2.338000000
H    -1.402000000    -5.570000000    -2.305000000
H    -2.452000000    -6.210000000    -1.422000000
O    -2.055000000    -8.797000000    -2.963000000
H    -2.800000000    -9.219000000    -2.534000000
H    -2.262000000    -7.863000000    -2.939000000
O     0.888000000    -6.114000000    -3.997000000
H     0.076000000    -5.984000000    -4.487000000
H     0.827000000    -5.501000000    -3.265000000
O    -4.913000000    -7.058000000    -0.330000000
H    -4.509000000    -6.540000000     0.366000000
H    -4.554000000    -7.937000000    -0.214000000
