201
-1219.21517
C     5.163000000    -0.724000000     1.224000000
H     5.095000000    -0.371000000     2.250000000
C     4.631000000    -0.015000000     0.160000000
C     4.595000000    -0.490000000    -1.138000000
H     4.118000000     0.042000000    -1.957000000
C     3.844000000     1.235000000     0.346000000
O     4.204000000     1.921000000     1.555000000
H     2.770000000     1.021000000     0.453000000
O     4.110000000     2.174000000    -0.694000000
C     3.162000000     2.990000000    -1.273000000
C     2.724000000     2.618000000    -2.499000000
H     3.155000000     1.708000000    -2.908000000
C     1.659000000     3.157000000    -3.134000000
O     1.262000000     2.576000000    -4.238000000
C     1.093000000     4.204000000    -2.472000000
C    -0.223000000     4.840000000    -2.874000000
H    -0.188000000     5.878000000    -2.538000000
C    -1.387000000     4.058000000    -2.372000000
C    -1.973000000     4.280000000    -1.150000000
H    -1.691000000     5.093000000    -0.485000000
H    -0.253000000     4.853000000    -3.966000000
C     1.567000000     4.720000000    -1.279000000
H     1.110000000     5.570000000    -0.778000000
C     2.616000000     4.061000000    -0.620000000
C     3.148000000     4.503000000     0.736000000
H     2.961000000     5.574000000     0.837000000
H     4.227000000     4.336000000     0.779000000
C     2.485000000     3.670000000     1.839000000
C     1.286000000     3.990000000     2.495000000
H     0.695000000     4.868000000     2.248000000
C     3.153000000     2.504000000     2.268000000
C     2.655000000     1.702000000     3.249000000
H     3.211000000     0.798000000     3.485000000
C     1.361000000     1.952000000     3.797000000
O     0.857000000     1.052000000     4.697000000
C    -0.372000000     0.363000000     4.410000000
C    -0.216000000    -1.135000000     4.746000000
C    -1.310000000    -1.882000000     5.263000000
H    -2.273000000    -1.420000000     5.463000000
C     0.971000000    -1.849000000     4.472000000
H     1.774000000    -1.340000000     3.945000000
O    -1.478000000     1.087000000     5.003000000
H    -0.481000000     0.375000000     3.315000000
C     0.741000000     3.155000000     3.520000000
C    -0.423000000     3.640000000     4.339000000
H    -0.568000000     4.723000000     4.333000000
H    -0.387000000     3.479000000     5.419000000
C    -1.629000000     3.104000000     3.649000000
C    -2.187000000     3.767000000     2.548000000
H    -1.889000000     4.766000000     2.240000000
C    -2.163000000     1.895000000     4.039000000
C    -3.219000000     1.304000000     3.349000000
H    -3.569000000     0.319000000     3.646000000
C    -3.719000000     1.876000000     2.185000000
O    -4.615000000     1.231000000     1.383000000
C    -4.092000000     0.705000000     0.201000000
C    -4.348000000    -0.802000000    -0.078000000
C    -4.725000000    -1.597000000     0.988000000
H    -5.095000000    -1.021000000     1.832000000
C    -3.989000000    -1.341000000    -1.278000000
H    -3.630000000    -0.602000000    -1.990000000
O    -4.488000000     1.489000000    -0.951000000
H    -3.019000000     0.885000000     0.358000000
C    -3.165000000     3.130000000     1.791000000
C    -3.744000000     3.939000000     0.626000000
H    -3.803000000     5.008000000     0.841000000
H    -4.808000000     3.694000000     0.620000000
C    -3.077000000     3.511000000    -0.692000000
C    -3.509000000     2.400000000    -1.448000000
C    -2.890000000     2.085000000    -2.706000000
H    -3.204000000     1.326000000    -3.419000000
C    -1.870000000     2.945000000    -3.144000000
O    -1.137000000     2.589000000    -4.287000000
C     0.060000000     1.809000000    -4.024000000
H    -0.036000000     1.319000000    -3.043000000
C     0.155000000     0.650000000    -5.011000000
C     1.416000000     0.109000000    -5.334000000
H     2.301000000     0.448000000    -4.802000000
C    -1.022000000     0.081000000    -5.527000000
H    -2.022000000     0.340000000    -5.188000000
C    -0.885000000    -1.101000000    -6.288000000
O    -1.998000000    -1.692000000    -6.858000000
C     0.383000000    -1.514000000    -6.687000000
H     0.527000000    -2.267000000    -7.457000000
C     1.550000000    -0.996000000    -6.147000000
O     2.850000000    -1.269000000    -6.497000000
C     3.945000000    -1.183000000    -5.759000000
C     3.999000000    -1.779000000    -4.548000000
H     3.109000000    -2.347000000    -4.289000000
C     5.178000000    -0.687000000    -6.305000000
H     5.072000000    -0.127000000    -7.230000000
C     6.333000000    -0.640000000    -5.485000000
H     7.260000000    -0.195000000    -5.837000000
C     6.292000000    -1.224000000    -4.185000000
H     7.184000000    -1.227000000    -3.563000000
C     5.170000000    -1.869000000    -3.809000000
O     4.952000000    -2.367000000    -2.573000000
C     5.124000000    -1.739000000    -1.373000000
C     5.752000000    -2.390000000    -0.357000000
H     6.074000000    -3.393000000    -0.627000000
C     5.728000000    -1.924000000     0.965000000
O     6.261000000    -2.677000000     2.081000000
C     5.398000000    -2.884000000     3.146000000
C     4.130000000    -3.370000000     3.043000000
H     3.785000000    -3.767000000     2.092000000
C     5.743000000    -2.281000000     4.339000000
H     6.706000000    -1.776000000     4.351000000
C     4.962000000    -2.280000000     5.516000000
H     5.285000000    -1.933000000     6.494000000
C     3.700000000    -2.913000000     5.364000000
H     3.027000000    -2.887000000     6.218000000
C     3.270000000    -3.405000000     4.177000000
O     2.080000000    -3.940000000     4.221000000
C     0.984000000    -3.208000000     4.686000000
C    -0.111000000    -3.932000000     5.107000000
H    -0.125000000    -5.019000000     5.083000000
C    -1.250000000    -3.275000000     5.505000000
O    -2.515000000    -3.948000000     5.750000000
C    -3.700000000    -3.605000000     5.122000000
C    -3.862000000    -3.867000000     3.713000000
H    -3.081000000    -4.320000000     3.107000000
C    -4.661000000    -2.905000000     5.879000000
H    -4.357000000    -2.613000000     6.882000000
C    -5.823000000    -2.494000000     5.229000000
H    -6.651000000    -2.099000000     5.812000000
C    -6.067000000    -2.799000000     3.941000000
H    -7.078000000    -2.635000000     3.575000000
C    -5.107000000    -3.487000000     3.140000000
O    -5.377000000    -3.814000000     1.827000000
C    -4.891000000    -2.979000000     0.812000000
C    -4.589000000    -3.495000000    -0.475000000
H    -4.771000000    -4.550000000    -0.660000000
C    -4.196000000    -2.654000000    -1.483000000
O    -3.662000000    -3.280000000    -2.647000000
C    -3.895000000    -2.813000000    -3.985000000
C    -5.216000000    -2.623000000    -4.423000000
H    -6.004000000    -2.736000000    -3.682000000
C    -5.417000000    -2.400000000    -5.792000000
H    -6.438000000    -2.207000000    -6.110000000
C    -4.331000000    -2.004000000    -6.613000000
H    -4.451000000    -1.802000000    -7.674000000
C    -3.045000000    -2.089000000    -6.111000000
C    -2.840000000    -2.563000000    -4.824000000
H    -1.825000000    -2.629000000    -4.441000000
O     1.360000000   -10.141000000    -0.490000000
H     0.729000000    -9.972000000     0.210000000
H     1.315000000    -9.362000000    -1.045000000
O    -1.671000000    -5.988000000    -5.120000000
H    -2.057000000    -6.009000000    -4.244000000
H    -1.075000000    -6.737000000    -5.136000000
O     2.601000000    -7.447000000    -6.565000000
H     2.725000000    -6.553000000    -6.245000000
H     3.196000000    -7.976000000    -6.034000000
O    -3.353000000    -6.763000000     1.415000000
H    -2.582000000    -6.246000000     1.651000000
H    -2.999000000    -7.609000000     1.140000000
O     0.306000000    -7.570000000     2.950000000
H     0.443000000    -6.656000000     2.702000000
H     0.951000000    -7.729000000     3.640000000
O     3.696000000    -6.057000000    -0.641000000
H     2.880000000    -5.721000000    -0.268000000
H     3.680000000    -5.766000000    -1.552000000
O    -0.200000000    -5.225000000     1.598000000
H    -0.576000000    -4.346000000     1.656000000
H     0.146000000    -5.278000000     0.707000000
O    -1.388000000    -2.764000000     1.673000000
H    -2.286000000    -2.438000000     1.607000000
H    -0.864000000    -2.120000000     1.197000000
O     0.744000000    -7.765000000    -1.651000000
H    -0.164000000    -8.070000000    -1.646000000
H     0.690000000    -6.847000000    -1.385000000
O     0.014000000    -8.066000000    -4.907000000
H     0.951000000    -8.181000000    -5.063000000
H    -0.059000000    -7.950000000    -3.960000000
O     2.780000000    -5.559000000    -3.476000000
H     1.979000000    -5.152000000    -3.147000000
H     2.489000000    -6.388000000    -3.856000000
O     5.740000000    -6.053000000    -4.248000000
H     6.226000000    -6.856000000    -4.437000000
H     4.934000000    -6.355000000    -3.830000000
O     3.868000000    -7.892000000     1.136000000
H     3.412000000    -8.578000000     0.649000000
H     3.882000000    -7.143000000     0.539000000
O     2.174000000    -4.576000000    -7.542000000
H     1.384000000    -4.973000000    -7.908000000
H     1.940000000    -4.369000000    -6.637000000
O     2.723000000    -8.212000000    -3.789000000
H     2.595000000    -9.150000000    -3.934000000
H     2.223000000    -8.022000000    -2.995000000
O    -1.849000000    -5.713000000    -2.334000000
H    -1.189000000    -5.036000000    -2.478000000
H    -2.442000000    -5.335000000    -1.684000000
O    -1.782000000    -8.609000000    -2.354000000
H    -2.481000000    -9.250000000    -2.231000000
H    -2.235000000    -7.768000000    -2.408000000
O    -4.696000000    -5.788000000    -3.912000000
H    -4.357000000    -5.177000000    -3.258000000
H    -5.610000000    -5.921000000    -3.664000000
O     0.615000000    -4.302000000    -5.396000000
H    -0.072000000    -4.953000000    -5.538000000
H     0.672000000    -4.216000000    -4.445000000
