201
-1257.88798
C     5.071000000     0.194000000     0.646000000
H     4.722000000     0.364000000     1.661000000
C     4.675000000     1.028000000    -0.316000000
C     4.995000000     0.767000000    -1.652000000
H     4.641000000     1.439000000    -2.430000000
C     3.662000000     2.194000000    -0.028000000
O     3.974000000     2.785000000     1.257000000
H     2.684000000     1.716000000     0.130000000
O     3.648000000     3.148000000    -1.074000000
C     2.445000000     3.551000000    -1.543000000
C     2.006000000     2.935000000    -2.692000000
H     2.614000000     2.183000000    -3.188000000
C     0.664000000     3.131000000    -3.099000000
O     0.217000000     2.423000000    -4.211000000
C    -0.107000000     4.117000000    -2.464000000
C    -1.547000000     4.372000000    -2.956000000
H    -1.841000000     5.393000000    -2.703000000
C    -2.402000000     3.343000000    -2.335000000
C    -3.052000000     3.627000000    -1.108000000
H    -2.832000000     4.559000000    -0.594000000
H    -1.489000000     4.280000000    -4.043000000
C     0.413000000     4.819000000    -1.385000000
H    -0.138000000     5.618000000    -0.895000000
C     1.634000000     4.471000000    -0.848000000
C     2.230000000     5.090000000     0.447000000
H     1.760000000     6.053000000     0.656000000
H     3.282000000     5.331000000     0.281000000
C     1.956000000     4.168000000     1.644000000
C     0.800000000     4.314000000     2.357000000
H     0.172000000     5.165000000     2.106000000
C     2.861000000     3.147000000     2.012000000
C     2.430000000     2.181000000     2.957000000
H     3.047000000     1.310000000     3.162000000
C     1.264000000     2.377000000     3.611000000
O     0.984000000     1.460000000     4.627000000
C     0.005000000     0.444000000     4.299000000
C     0.406000000    -1.026000000     4.580000000
C    -0.503000000    -2.019000000     4.818000000
H    -1.566000000    -1.809000000     4.732000000
C     1.786000000    -1.349000000     4.643000000
H     2.460000000    -0.532000000     4.396000000
O    -1.317000000     0.762000000     4.907000000
H    -0.123000000     0.497000000     3.208000000
C     0.426000000     3.432000000     3.309000000
C    -0.865000000     3.660000000     4.152000000
H    -1.224000000     4.690000000     4.186000000
H    -0.766000000     3.346000000     5.194000000
C    -1.974000000     2.774000000     3.637000000
C    -2.767000000     3.305000000     2.636000000
H    -2.681000000     4.337000000     2.304000000
C    -2.156000000     1.477000000     4.073000000
C    -3.154000000     0.752000000     3.432000000
H    -3.337000000    -0.236000000     3.847000000
C    -3.906000000     1.184000000     2.356000000
O    -4.635000000     0.322000000     1.606000000
C    -4.244000000    -0.244000000     0.324000000
C    -4.715000000    -1.707000000     0.244000000
C    -4.850000000    -2.438000000     1.406000000
H    -4.908000000    -1.922000000     2.361000000
C    -4.607000000    -2.391000000    -0.958000000
H    -4.397000000    -1.808000000    -1.850000000
O    -4.986000000     0.527000000    -0.625000000
H    -3.146000000    -0.167000000     0.334000000
C    -3.714000000     2.521000000     1.957000000
C    -4.567000000     3.080000000     0.800000000
H    -4.736000000     4.132000000     1.037000000
H    -5.608000000     2.768000000     0.906000000
C    -3.908000000     2.717000000    -0.526000000
C    -4.201000000     1.502000000    -1.192000000
C    -3.452000000     1.164000000    -2.305000000
H    -3.497000000     0.155000000    -2.707000000
C    -2.599000000     2.087000000    -2.894000000
O    -1.887000000     1.623000000    -3.983000000
C    -0.516000000     1.277000000    -3.911000000
H    -0.118000000     0.923000000    -2.949000000
C    -0.142000000     0.157000000    -4.828000000
C     1.078000000     0.086000000    -5.507000000
H     1.898000000     0.786000000    -5.368000000
C    -0.998000000    -0.968000000    -4.843000000
H    -1.964000000    -0.913000000    -4.347000000
C    -0.676000000    -2.074000000    -5.645000000
O    -1.450000000    -3.199000000    -5.577000000
C     0.517000000    -2.027000000    -6.401000000
H     0.875000000    -2.964000000    -6.819000000
C     1.443000000    -0.990000000    -6.255000000
O     2.728000000    -1.212000000    -6.674000000
C     3.796000000    -0.474000000    -6.061000000
C     4.357000000    -0.875000000    -4.865000000
H     4.226000000    -1.829000000    -4.360000000
C     4.352000000     0.606000000    -6.731000000
H     3.783000000     0.862000000    -7.621000000
C     5.404000000     1.332000000    -6.197000000
H     5.883000000     2.119000000    -6.774000000
C     5.936000000     1.017000000    -4.972000000
H     6.833000000     1.486000000    -4.575000000
C     5.449000000    -0.133000000    -4.364000000
O     6.075000000    -0.667000000    -3.258000000
C     5.685000000    -0.360000000    -1.961000000
C     6.197000000    -1.143000000    -1.011000000
H     6.721000000    -2.036000000    -1.340000000
C     5.867000000    -0.905000000     0.311000000
O     6.356000000    -1.715000000     1.208000000
C     5.923000000    -1.656000000     2.575000000
C     4.822000000    -2.312000000     2.978000000
H     4.186000000    -2.808000000     2.249000000
C     6.660000000    -0.849000000     3.400000000
H     7.463000000    -0.239000000     2.995000000
C     6.405000000    -0.741000000     4.716000000
H     6.962000000    -0.011000000     5.297000000
C     5.389000000    -1.502000000     5.188000000
H     5.205000000    -1.539000000     6.259000000
C     4.628000000    -2.286000000     4.359000000
O     3.581000000    -3.044000000     4.890000000
C     2.206000000    -2.686000000     4.856000000
C     1.213000000    -3.628000000     5.078000000
H     1.591000000    -4.607000000     5.361000000
C    -0.109000000    -3.354000000     5.009000000
O    -0.962000000    -4.404000000     5.044000000
C    -2.386000000    -4.304000000     4.958000000
C    -3.031000000    -4.475000000     3.721000000
H    -2.521000000    -4.712000000     2.791000000
C    -3.047000000    -4.055000000     6.128000000
H    -2.386000000    -3.865000000     6.970000000
C    -4.434000000    -4.077000000     6.109000000
H    -4.974000000    -3.890000000     7.035000000
C    -5.146000000    -4.293000000     4.925000000
H    -6.233000000    -4.319000000     4.935000000
C    -4.443000000    -4.432000000     3.717000000
O    -5.196000000    -4.539000000     2.501000000
C    -4.908000000    -3.833000000     1.394000000
C    -4.973000000    -4.496000000     0.174000000
H    -4.991000000    -5.580000000     0.100000000
C    -4.766000000    -3.794000000    -1.016000000
O    -4.691000000    -4.447000000    -2.273000000
C    -4.380000000    -3.816000000    -3.477000000
C    -5.358000000    -3.108000000    -4.168000000
H    -6.396000000    -3.144000000    -3.847000000
C    -4.994000000    -2.408000000    -5.293000000
H    -5.817000000    -1.892000000    -5.780000000
C    -3.663000000    -2.455000000    -5.773000000
H    -3.436000000    -1.849000000    -6.646000000
C    -2.717000000    -3.163000000    -5.086000000
C    -3.055000000    -3.833000000    -3.946000000
H    -2.330000000    -4.363000000    -3.334000000
O    -1.791000000    -7.568000000     4.632000000
H    -1.602000000    -7.193000000     3.772000000
H    -1.071000000    -8.179000000     4.790000000
O     1.904000000    -8.720000000     3.372000000
H     2.408000000    -7.997000000     3.000000000
H     1.626000000    -8.401000000     4.231000000
O     0.098000000    -6.708000000     6.751000000
H    -0.135000000    -7.628000000     6.626000000
H    -0.324000000    -6.253000000     6.022000000
O     2.144000000    -4.909000000    -6.275000000
H     2.450000000    -5.815000000    -6.263000000
H     2.382000000    -4.564000000    -5.414000000
O    -0.739000000   -10.188000000     2.097000000
H    -1.080000000    -9.835000000     1.275000000
H    -0.360000000    -9.431000000     2.544000000
O     4.640000000    -5.024000000     0.397000000
H     3.707000000    -4.974000000     0.605000000
H     4.712000000    -4.643000000    -0.478000000
O     3.330000000    -6.534000000     2.946000000
H     3.984000000    -5.957000000     3.342000000
H     2.842000000    -5.968000000     2.349000000
O    -0.413000000    -6.768000000     2.344000000
H    -0.466000000    -6.392000000     1.465000000
H     0.526000000    -6.830000000     2.522000000
O    -3.273000000    -8.102000000    -0.215000000
H    -2.828000000    -8.944000000    -0.128000000
H    -4.193000000    -8.298000000    -0.038000000
O     2.142000000    -7.102000000    -0.575000000
H     2.958000000    -6.736000000    -0.918000000
H     1.650000000    -6.341000000    -0.267000000
O    -1.490000000    -6.584000000    -1.725000000
H    -0.993000000    -6.080000000    -1.080000000
H    -2.178000000    -7.012000000    -1.216000000
O     3.319000000    -8.120000000    -3.429000000
H     2.966000000    -9.007000000    -3.349000000
H     2.609000000    -7.553000000    -3.129000000
O     5.266000000    -4.272000000    -2.373000000
H     5.536000000    -3.431000000    -2.741000000
H     4.689000000    -4.650000000    -3.037000000
O     7.747000000    -4.796000000     1.923000000
H     7.826000000    -4.440000000     2.808000000
H     6.819000000    -5.014000000     1.835000000
O     2.880000000    -4.357000000    -3.515000000
H     2.781000000    -3.571000000    -2.978000000
H     2.038000000    -4.805000000    -3.443000000
O     0.271000000    -5.060000000    -3.226000000
H    -0.181000000    -4.729000000    -4.002000000
H    -0.290000000    -5.765000000    -2.904000000
O     0.070000000    -8.879000000    -0.771000000
H    -0.333000000    -8.026000000    -0.935000000
H     0.948000000    -8.671000000    -0.451000000
O     1.845000000    -1.788000000    -2.368000000
H     0.965000000    -1.633000000    -2.026000000
H     2.427000000    -1.402000000    -1.714000000
O    -2.719000000    -7.654000000    -4.337000000
H    -3.606000000    -7.549000000    -3.992000000
H    -2.162000000    -7.187000000    -3.715000000
