201
-1248.79880
C     4.316000000     1.240000000     2.922000000
H     3.610000000     0.999000000     3.712000000
C     3.881000000     2.161000000     1.977000000
C     4.743000000     2.521000000     0.924000000
H     4.409000000     3.169000000     0.118000000
C     2.520000000     2.801000000     2.060000000
O     2.094000000     3.044000000     3.408000000
H     1.774000000     2.150000000     1.579000000
O     2.465000000     4.103000000     1.339000000
C     1.436000000     4.459000000     0.522000000
C     1.527000000     4.037000000    -0.850000000
H     2.519000000     3.715000000    -1.156000000
C     0.431000000     4.192000000    -1.693000000
O     0.638000000     3.879000000    -3.018000000
C    -0.785000000     4.546000000    -1.117000000
C    -1.912000000     4.712000000    -2.096000000
H    -2.555000000     5.574000000    -1.910000000
C    -2.633000000     3.430000000    -2.306000000
C    -3.649000000     3.052000000    -1.405000000
H    -3.994000000     3.776000000    -0.672000000
H    -1.518000000     4.938000000    -3.089000000
C    -0.901000000     4.805000000     0.239000000
H    -1.893000000     5.106000000     0.569000000
C     0.190000000     4.761000000     1.068000000
C    -0.014000000     4.929000000     2.594000000
H    -0.769000000     5.632000000     2.950000000
H     0.957000000     5.298000000     2.931000000
C    -0.290000000     3.580000000     3.196000000
C    -1.581000000     3.191000000     3.380000000
H    -2.420000000     3.788000000     3.031000000
C     0.729000000     2.754000000     3.606000000
C     0.410000000     1.470000000     4.192000000
H     1.327000000     0.994000000     4.527000000
C    -0.938000000     1.106000000     4.393000000
O    -1.172000000    -0.132000000     4.960000000
C    -1.482000000    -1.182000000     3.995000000
C    -0.794000000    -2.458000000     4.378000000
C    -1.454000000    -3.642000000     4.127000000
H    -2.537000000    -3.722000000     4.171000000
C     0.566000000    -2.506000000     4.442000000
H     1.128000000    -1.576000000     4.410000000
O    -2.966000000    -1.285000000     3.919000000
H    -1.107000000    -0.906000000     2.998000000
C    -1.935000000     1.979000000     4.005000000
C    -3.439000000     1.610000000     4.143000000
H    -4.060000000     2.493000000     4.306000000
H    -3.653000000     0.957000000     4.992000000
C    -3.737000000     0.801000000     2.945000000
C    -4.335000000     1.409000000     1.871000000
H    -4.381000000     2.492000000     1.800000000
C    -3.560000000    -0.605000000     2.871000000
C    -3.976000000    -1.304000000     1.749000000
H    -3.839000000    -2.381000000     1.788000000
C    -4.549000000    -0.683000000     0.676000000
O    -4.934000000    -1.359000000    -0.462000000
C    -3.853000000    -1.295000000    -1.374000000
C    -3.453000000    -2.663000000    -1.979000000
C    -3.313000000    -3.791000000    -1.134000000
H    -3.501000000    -3.788000000    -0.063000000
C    -3.030000000    -2.783000000    -3.337000000
H    -3.042000000    -1.894000000    -3.963000000
O    -4.321000000    -0.397000000    -2.541000000
H    -2.884000000    -0.903000000    -1.030000000
C    -4.733000000     0.747000000     0.727000000
C    -5.401000000     1.474000000    -0.487000000
H    -5.908000000     2.389000000    -0.172000000
H    -6.041000000     0.793000000    -1.052000000
C    -4.301000000     1.809000000    -1.518000000
C    -3.898000000     0.891000000    -2.532000000
C    -2.906000000     1.254000000    -3.437000000
H    -2.718000000     0.650000000    -4.321000000
C    -2.267000000     2.471000000    -3.338000000
O    -1.140000000     2.661000000    -4.120000000
C     0.186000000     2.591000000    -3.458000000
H    -0.004000000     1.902000000    -2.622000000
C     1.278000000     1.887000000    -4.308000000
C     2.631000000     2.099000000    -4.070000000
H     2.875000000     2.924000000    -3.405000000
C     0.870000000     0.855000000    -5.194000000
H    -0.197000000     0.677000000    -5.299000000
C     1.828000000     0.063000000    -5.792000000
O     1.339000000    -1.145000000    -6.332000000
C     3.167000000     0.233000000    -5.561000000
H     3.908000000    -0.410000000    -6.030000000
C     3.540000000     1.287000000    -4.765000000
O     4.934000000     1.424000000    -4.556000000
C     5.561000000     2.319000000    -3.707000000
C     5.906000000     1.874000000    -2.403000000
H     5.645000000     0.882000000    -2.042000000
C     5.899000000     3.623000000    -4.076000000
H     5.616000000     3.994000000    -5.058000000
C     6.634000000     4.414000000    -3.231000000
H     6.952000000     5.407000000    -3.538000000
C     6.795000000     3.983000000    -1.948000000
H     7.287000000     4.595000000    -1.196000000
C     6.443000000     2.736000000    -1.493000000
O     6.866000000     2.360000000    -0.180000000
C     5.970000000     1.882000000     0.777000000
C     6.358000000     0.918000000     1.633000000
H     7.313000000     0.411000000     1.520000000
C     5.525000000     0.515000000     2.685000000
O     6.032000000    -0.319000000     3.618000000
C     5.213000000    -1.113000000     4.445000000
C     4.340000000    -2.035000000     3.822000000
H     4.227000000    -2.168000000     2.749000000
C     5.118000000    -0.880000000     5.814000000
H     5.725000000    -0.128000000     6.312000000
C     4.182000000    -1.588000000     6.624000000
H     4.148000000    -1.275000000     7.664000000
C     3.297000000    -2.508000000     6.077000000
H     2.601000000    -3.050000000     6.712000000
C     3.419000000    -2.769000000     4.686000000
O     2.639000000    -3.740000000     4.149000000
C     1.312000000    -3.686000000     4.240000000
C     0.625000000    -4.858000000     3.987000000
H     1.262000000    -5.667000000     3.641000000
C    -0.738000000    -4.846000000     3.983000000
O    -1.346000000    -5.969000000     3.681000000
C    -2.366000000    -6.043000000     2.781000000
C    -2.094000000    -5.991000000     1.403000000
H    -1.061000000    -5.971000000     1.065000000
C    -3.646000000    -6.378000000     3.233000000
H    -3.813000000    -6.577000000     4.288000000
C    -4.691000000    -6.568000000     2.235000000
H    -5.661000000    -6.931000000     2.563000000
C    -4.352000000    -6.489000000     0.881000000
H    -5.149000000    -6.722000000     0.180000000
C    -3.056000000    -6.198000000     0.431000000
O    -2.777000000    -6.196000000    -0.949000000
C    -2.797000000    -5.025000000    -1.642000000
C    -2.436000000    -5.119000000    -2.972000000
H    -2.000000000    -6.051000000    -3.323000000
C    -2.520000000    -4.016000000    -3.779000000
O    -2.130000000    -4.161000000    -5.165000000
C    -1.680000000    -3.126000000    -5.929000000
C    -2.523000000    -2.460000000    -6.790000000
H    -3.586000000    -2.690000000    -6.778000000
C    -2.065000000    -1.444000000    -7.560000000
H    -2.801000000    -0.878000000    -8.124000000
C    -0.774000000    -0.925000000    -7.428000000
H    -0.447000000    -0.108000000    -8.065000000
C     0.043000000    -1.523000000    -6.536000000
C    -0.390000000    -2.614000000    -5.798000000
H     0.334000000    -3.025000000    -5.100000000
O     7.238000000    -4.812000000    -0.951000000
H     7.856000000    -5.027000000    -1.649000000
H     6.490000000    -4.423000000    -1.404000000
O     6.632000000    -3.994000000     2.751000000
H     6.446000000    -4.547000000     3.510000000
H     5.866000000    -4.096000000     2.186000000
O     5.105000000    -8.425000000    -4.213000000
H     5.296000000    -7.595000000    -4.650000000
H     4.167000000    -8.386000000    -4.027000000
O     4.870000000    -3.193000000    -6.589000000
H     4.060000000    -3.445000000    -6.146000000
H     4.580000000    -2.683000000    -7.346000000
O    -0.886000000    -9.078000000     1.207000000
H    -1.145000000    -9.585000000     0.438000000
H    -0.495000000    -8.281000000     0.848000000
O     5.557000000    -5.443000000    -4.808000000
H     5.207000000    -5.263000000    -3.935000000
H     5.444000000    -4.621000000    -5.285000000
O     3.201000000    -8.923000000     0.834000000
H     3.858000000    -9.319000000     0.261000000
H     2.556000000    -9.617000000     0.973000000
O     4.211000000    -4.768000000     0.682000000
H     4.729000000    -4.023000000     0.377000000
H     3.324000000    -4.586000000     0.373000000
O     5.189000000    -2.156000000     0.126000000
H     5.803000000    -1.482000000     0.416000000
H     4.933000000    -1.884000000    -0.756000000
O     0.962000000    -7.161000000     0.257000000
H     1.724000000    -7.738000000     0.299000000
H     1.325000000    -6.300000000     0.048000000
O     0.832000000    -6.870000000    -2.422000000
H     0.583000000    -7.134000000    -1.536000000
H     1.300000000    -6.043000000    -2.303000000
O     4.454000000    -5.111000000    -2.363000000
H     3.557000000    -4.814000000    -2.207000000
H     4.482000000    -5.993000000    -1.993000000
O     7.349000000    -1.216000000    -3.043000000
H     7.943000000    -0.838000000    -3.691000000
H     6.501000000    -0.817000000    -3.234000000
O     4.379000000    -7.003000000     2.425000000
H     4.131000000    -7.683000000     1.799000000
H     4.126000000    -6.183000000     2.001000000
O     2.842000000    -3.883000000    -4.927000000
H     2.574000000    -3.933000000    -4.010000000
H     2.032000000    -4.009000000    -5.421000000
O    -1.436000000    -8.688000000    -3.310000000
H    -1.884000000    -8.992000000    -2.521000000
H    -0.604000000    -8.337000000    -2.993000000
O     2.394000000    -8.722000000    -3.494000000
H     1.834000000    -8.410000000    -2.783000000
H     1.914000000    -8.499000000    -4.292000000
O     1.178000000    -7.424000000    -6.224000000
H     1.262000000    -6.474000000    -6.305000000
H     0.263000000    -7.563000000    -5.978000000
O     4.155000000    -1.040000000    -2.658000000
H     3.932000000    -0.679000000    -3.516000000
H     3.412000000    -1.600000000    -2.433000000
