201
-1240.18457
C     4.845000000     0.304000000     1.967000000
H     4.279000000     0.250000000     2.894000000
C     4.471000000     1.260000000     0.958000000
C     5.264000000     1.314000000    -0.148000000
H     5.032000000     2.108000000    -0.854000000
C     3.310000000     2.287000000     1.205000000
O     3.244000000     2.513000000     2.591000000
H     2.366000000     1.785000000     0.945000000
O     3.513000000     3.520000000     0.516000000
C     2.442000000     4.092000000    -0.124000000
C     2.327000000     3.766000000    -1.498000000
H     3.076000000     3.281000000    -2.117000000
C     1.171000000     4.199000000    -2.117000000
O     0.898000000     3.805000000    -3.409000000
C     0.069000000     4.819000000    -1.442000000
C    -1.232000000     5.094000000    -2.145000000
H    -1.672000000     5.954000000    -1.635000000
C    -2.207000000     3.928000000    -2.103000000
C    -3.013000000     3.839000000    -1.019000000
H    -2.898000000     4.515000000    -0.176000000
H    -1.095000000     5.406000000    -3.183000000
C     0.213000000     4.984000000    -0.079000000
H    -0.640000000     5.335000000     0.495000000
C     1.375000000     4.623000000     0.607000000
C     1.599000000     4.939000000     2.084000000
H     1.005000000     5.818000000     2.340000000
H     2.633000000     5.255000000     2.239000000
C     1.159000000     3.769000000     2.988000000
C    -0.178000000     3.769000000     3.446000000
H    -0.965000000     4.513000000     3.355000000
C     2.001000000     2.681000000     3.187000000
C     1.529000000     1.603000000     3.905000000
H     2.116000000     0.711000000     4.110000000
C     0.278000000     1.601000000     4.377000000
O    -0.067000000     0.378000000     4.949000000
C    -0.759000000    -0.546000000     4.048000000
C    -0.349000000    -1.998000000     4.314000000
C    -1.146000000    -3.049000000     3.706000000
H    -2.040000000    -2.735000000     3.173000000
C     0.891000000    -2.310000000     4.834000000
H     1.463000000    -1.503000000     5.285000000
O    -2.157000000    -0.431000000     4.275000000
H    -0.544000000    -0.150000000     3.045000000
C    -0.665000000     2.621000000     4.078000000
C    -2.051000000     2.541000000     4.534000000
H    -2.511000000     3.519000000     4.689000000
H    -2.314000000     1.995000000     5.443000000
C    -2.854000000     1.777000000     3.448000000
C    -3.534000000     2.497000000     2.479000000
H    -3.541000000     3.582000000     2.547000000
C    -2.903000000     0.375000000     3.437000000
C    -3.716000000    -0.281000000     2.535000000
H    -3.813000000    -1.361000000     2.605000000
C    -4.376000000     0.447000000     1.531000000
O    -5.036000000    -0.208000000     0.549000000
C    -4.227000000    -0.458000000    -0.634000000
C    -4.484000000    -1.883000000    -1.103000000
C    -4.772000000    -2.951000000    -0.233000000
H    -5.045000000    -2.870000000     0.816000000
C    -4.308000000    -2.221000000    -2.465000000
H    -3.977000000    -1.470000000    -3.178000000
O    -4.465000000     0.438000000    -1.752000000
H    -3.167000000    -0.268000000    -0.411000000
C    -4.287000000     1.866000000     1.508000000
C    -4.858000000     2.624000000     0.349000000
H    -5.091000000     3.668000000     0.570000000
H    -5.776000000     2.185000000    -0.047000000
C    -3.900000000     2.732000000    -0.885000000
C    -3.855000000     1.697000000    -1.894000000
C    -2.929000000     1.805000000    -2.944000000
H    -2.755000000     1.000000000    -3.654000000
C    -2.072000000     2.928000000    -3.031000000
O    -1.167000000     2.851000000    -4.049000000
C     0.168000000     2.571000000    -3.651000000
H     0.045000000     2.053000000    -2.689000000
C     0.732000000     1.477000000    -4.605000000
C     2.104000000     1.301000000    -4.664000000
H     2.781000000     1.999000000    -4.179000000
C    -0.080000000     0.569000000    -5.206000000
H    -1.157000000     0.588000000    -5.057000000
C     0.458000000    -0.482000000    -6.006000000
O    -0.367000000    -1.394000000    -6.588000000
C     1.853000000    -0.627000000    -6.053000000
H     2.226000000    -1.368000000    -6.755000000
C     2.667000000     0.180000000    -5.283000000
O     4.034000000    -0.054000000    -5.388000000
C     5.004000000     0.620000000    -4.708000000
C     5.474000000     0.141000000    -3.517000000
H     4.976000000    -0.680000000    -3.008000000
C     5.646000000     1.658000000    -5.263000000
H     5.306000000     2.092000000    -6.200000000
C     6.751000000     2.308000000    -4.624000000
H     7.113000000     3.218000000    -5.095000000
C     7.199000000     1.761000000    -3.455000000
H     8.101000000     2.128000000    -2.972000000
C     6.519000000     0.727000000    -2.825000000
O     6.935000000     0.277000000    -1.596000000
C     6.188000000     0.305000000    -0.438000000
C     6.409000000    -0.749000000     0.430000000
H     7.177000000    -1.480000000     0.190000000
C     5.777000000    -0.749000000     1.682000000
O     5.963000000    -1.853000000     2.550000000
C     5.324000000    -2.029000000     3.669000000
C     4.242000000    -2.844000000     3.792000000
H     3.874000000    -3.226000000     2.843000000
C     5.995000000    -1.576000000     4.799000000
H     6.863000000    -0.922000000     4.769000000
C     5.427000000    -1.816000000     6.048000000
H     5.931000000    -1.437000000     6.933000000
C     4.338000000    -2.613000000     6.184000000
H     3.906000000    -2.808000000     7.162000000
C     3.729000000    -3.205000000     5.021000000
O     2.595000000    -4.001000000     5.235000000
C     1.380000000    -3.635000000     4.729000000
C     0.593000000    -4.675000000     4.229000000
H     1.031000000    -5.669000000     4.279000000
C    -0.659000000    -4.392000000     3.680000000
O    -1.315000000    -5.412000000     3.034000000
C    -2.733000000    -5.446000000     2.909000000
C    -3.302000000    -5.387000000     1.641000000
H    -2.623000000    -5.316000000     0.796000000
C    -3.571000000    -5.519000000     4.024000000
H    -3.177000000    -5.607000000     5.033000000
C    -4.938000000    -5.519000000     3.848000000
H    -5.567000000    -5.495000000     4.734000000
C    -5.463000000    -5.611000000     2.547000000
H    -6.527000000    -5.786000000     2.410000000
C    -4.692000000    -5.367000000     1.424000000
O    -5.226000000    -5.253000000     0.159000000
C    -4.968000000    -4.274000000    -0.710000000
C    -4.700000000    -4.530000000    -2.055000000
H    -4.648000000    -5.528000000    -2.482000000
C    -4.374000000    -3.465000000    -2.932000000
O    -3.860000000    -3.776000000    -4.149000000
C    -3.450000000    -2.909000000    -5.186000000
C    -4.394000000    -2.321000000    -6.020000000
H    -5.390000000    -2.758000000    -5.993000000
C    -4.011000000    -1.361000000    -6.961000000
H    -4.735000000    -0.913000000    -7.637000000
C    -2.661000000    -0.937000000    -7.053000000
H    -2.295000000    -0.293000000    -7.848000000
C    -1.693000000    -1.626000000    -6.253000000
C    -2.081000000    -2.666000000    -5.449000000
H    -1.273000000    -3.155000000    -4.911000000
O     6.348000000    -6.834000000     0.415000000
H     6.374000000    -7.339000000     1.227000000
H     5.610000000    -6.235000000     0.528000000
O    -1.491000000    -9.177000000     1.595000000
H    -1.163000000    -8.568000000     0.934000000
H    -2.444000000    -9.122000000     1.518000000
O     1.256000000    -6.405000000    -5.235000000
H     1.894000000    -6.707000000    -4.590000000
H     1.682000000    -6.548000000    -6.080000000
O     3.186000000    -3.618000000    -5.173000000
H     3.939000000    -4.016000000    -4.736000000
H     2.658000000    -3.258000000    -4.461000000
O    -0.727000000    -8.115000000     4.037000000
H    -0.959000000    -8.558000000     3.220000000
H    -0.991000000    -7.205000000     3.900000000
O     3.601000000    -7.245000000     3.867000000
H     2.999000000    -7.331000000     3.129000000
H     3.038000000    -7.282000000     4.641000000
O     4.500000000    -4.969000000     0.657000000
H     3.588000000    -5.081000000     0.925000000
H     4.479000000    -4.250000000     0.026000000
O     1.739000000    -7.470000000     1.998000000
H     1.221000000    -7.837000000     1.281000000
H     1.674000000    -6.523000000     1.879000000
O     6.170000000    -5.917000000     3.356000000
H     6.448000000    -6.827000000     3.256000000
H     5.234000000    -5.972000000     3.549000000
O     0.124000000    -8.008000000    -0.171000000
H     0.156000000    -8.479000000    -1.004000000
H     0.289000000    -7.095000000    -0.406000000
O     2.911000000    -7.069000000    -0.651000000
H     2.848000000    -7.468000000     0.216000000
H     2.202000000    -6.426000000    -0.671000000
O    -1.205000000    -6.986000000    -4.198000000
H    -1.217000000    -6.083000000    -3.882000000
H    -0.329000000    -7.098000000    -4.568000000
O     3.498000000    -6.862000000    -3.473000000
H     4.220000000    -6.239000000    -3.395000000
H     3.125000000    -6.908000000    -2.592000000
O     4.408000000    -3.104000000    -1.581000000
H     4.670000000    -3.783000000    -2.203000000
H     3.820000000    -2.537000000    -2.079000000
O     3.859000000    -9.636000000    -1.661000000
H     3.624000000    -8.720000000    -1.517000000
H     4.813000000    -9.630000000    -1.735000000
O     0.550000000    -4.352000000    -3.434000000
H     0.768000000    -4.560000000    -2.525000000
H     0.854000000    -5.111000000    -3.932000000
O    -2.521000000    -8.200000000    -2.228000000
H    -2.225000000    -9.103000000    -2.112000000
H    -2.035000000    -7.886000000    -2.991000000
O     2.002000000   -10.884000000    -0.496000000
H     1.359000000   -10.282000000    -0.871000000
H     2.837000000   -10.606000000    -0.871000000
O     2.150000000    -2.147000000    -2.774000000
H     1.526000000    -2.872000000    -2.751000000
H     1.705000000    -1.433000000    -2.316000000
