201
-1250.59858
C     4.487000000     0.718000000     3.061000000
H     3.830000000     0.419000000     3.873000000
C     4.144000000     1.732000000     2.123000000
C     5.073000000     1.959000000     1.117000000
H     4.844000000     2.683000000     0.339000000
C     2.809000000     2.513000000     2.184000000
O     2.389000000     2.849000000     3.527000000
H     2.085000000     1.876000000     1.654000000
O     2.884000000     3.745000000     1.463000000
C     1.866000000     4.223000000     0.698000000
C     1.916000000     4.065000000    -0.707000000
H     2.785000000     3.639000000    -1.202000000
C     0.827000000     4.419000000    -1.529000000
O     0.953000000     4.178000000    -2.893000000
C    -0.403000000     4.871000000    -0.953000000
C    -1.662000000     5.141000000    -1.867000000
H    -2.371000000     5.884000000    -1.495000000
C    -2.465000000     3.847000000    -2.069000000
C    -3.360000000     3.448000000    -1.128000000
H    -3.486000000     3.997000000    -0.199000000
H    -1.285000000     5.482000000    -2.833000000
C    -0.440000000     5.016000000     0.488000000
H    -1.363000000     5.407000000     0.909000000
C     0.694000000     4.717000000     1.300000000
C     0.507000000     4.868000000     2.785000000
H    -0.257000000     5.633000000     2.940000000
H     1.399000000     5.228000000     3.302000000
C     0.126000000     3.548000000     3.452000000
C    -1.190000000     3.214000000     3.721000000
H    -1.959000000     3.888000000     3.353000000
C     1.078000000     2.591000000     3.890000000
C     0.756000000     1.303000000     4.342000000
H     1.520000000     0.559000000     4.553000000
C    -0.589000000     1.006000000     4.475000000
O    -1.000000000    -0.273000000     4.924000000
C    -1.548000000    -1.134000000     3.918000000
C    -0.856000000    -2.500000000     3.937000000
C    -1.546000000    -3.577000000     3.334000000
H    -2.596000000    -3.402000000     3.116000000
C     0.505000000    -2.691000000     4.169000000
H     1.059000000    -1.782000000     4.390000000
O    -2.980000000    -1.198000000     3.900000000
H    -1.260000000    -0.731000000     2.936000000
C    -1.621000000     1.965000000     4.097000000
C    -3.144000000     1.683000000     4.163000000
H    -3.805000000     2.543000000     4.291000000
H    -3.384000000     1.004000000     4.984000000
C    -3.701000000     0.967000000     2.928000000
C    -4.247000000     1.726000000     1.875000000
H    -4.220000000     2.813000000     1.900000000
C    -3.606000000    -0.449000000     2.922000000
C    -4.010000000    -1.101000000     1.731000000
H    -3.806000000    -2.153000000     1.547000000
C    -4.593000000    -0.376000000     0.643000000
O    -4.791000000    -1.041000000    -0.566000000
C    -3.776000000    -0.797000000    -1.594000000
C    -3.449000000    -2.154000000    -2.182000000
C    -3.844000000    -3.317000000    -1.526000000
H    -4.243000000    -3.246000000    -0.517000000
C    -2.674000000    -2.248000000    -3.335000000
H    -2.454000000    -1.343000000    -3.894000000
O    -4.205000000     0.102000000    -2.625000000
H    -2.913000000    -0.324000000    -1.103000000
C    -4.657000000     1.017000000     0.686000000
C    -5.136000000     1.809000000    -0.457000000
H    -5.615000000     2.697000000    -0.038000000
H    -5.881000000     1.292000000    -1.066000000
C    -4.002000000     2.245000000    -1.326000000
C    -3.747000000     1.423000000    -2.480000000
C    -2.771000000     1.837000000    -3.369000000
H    -2.425000000     1.115000000    -4.103000000
C    -2.092000000     3.015000000    -3.153000000
O    -1.002000000     3.241000000    -4.008000000
C     0.267000000     2.926000000    -3.295000000
H     0.093000000     2.318000000    -2.395000000
C     1.159000000     1.990000000    -4.108000000
C     2.458000000     1.730000000    -3.687000000
H     2.763000000     2.191000000    -2.751000000
C     0.644000000     1.218000000    -5.146000000
H    -0.398000000     1.304000000    -5.444000000
C     1.498000000     0.433000000    -5.895000000
O     1.035000000    -0.233000000    -7.040000000
C     2.811000000     0.244000000    -5.576000000
H     3.428000000    -0.504000000    -6.069000000
C     3.273000000     0.868000000    -4.434000000
O     4.564000000     0.660000000    -4.036000000
C     5.329000000     1.527000000    -3.299000000
C     5.898000000     1.032000000    -2.111000000
H     5.658000000     0.003000000    -1.857000000
C     5.561000000     2.838000000    -3.640000000
H     5.040000000     3.059000000    -4.568000000
C     6.295000000     3.595000000    -2.890000000
H     6.499000000     4.637000000    -3.123000000
C     6.827000000     3.130000000    -1.656000000
H     7.446000000     3.808000000    -1.073000000
C     6.660000000     1.826000000    -1.321000000
O     7.061000000     1.325000000    -0.098000000
C     6.222000000     1.147000000     0.968000000
C     6.570000000     0.209000000     1.941000000
H     7.532000000    -0.298000000     1.941000000
C     5.691000000    -0.048000000     3.013000000
O     5.994000000    -0.901000000     4.072000000
C     5.030000000    -1.618000000     4.750000000
C     4.237000000    -2.608000000     4.147000000
H     4.415000000    -2.805000000     3.093000000
C     4.871000000    -1.191000000     6.078000000
H     5.381000000    -0.339000000     6.521000000
C     3.966000000    -1.957000000     6.867000000
H     3.866000000    -1.742000000     7.928000000
C     3.149000000    -2.944000000     6.256000000
H     2.361000000    -3.426000000     6.828000000
C     3.241000000    -3.170000000     4.868000000
O     2.470000000    -4.170000000     4.294000000
C     1.099000000    -3.937000000     4.011000000
C     0.402000000    -4.970000000     3.534000000
H     0.801000000    -5.981000000     3.505000000
C    -0.907000000    -4.770000000     3.142000000
O    -1.539000000    -5.920000000     2.685000000
C    -2.690000000    -5.930000000     1.956000000
C    -2.660000000    -5.721000000     0.594000000
H    -1.806000000    -5.319000000     0.054000000
C    -3.873000000    -6.341000000     2.537000000
H    -3.852000000    -6.487000000     3.614000000
C    -5.019000000    -6.545000000     1.823000000
H    -5.914000000    -6.960000000     2.279000000
C    -5.088000000    -6.306000000     0.493000000
H    -5.999000000    -6.442000000    -0.085000000
C    -3.877000000    -5.899000000    -0.153000000
O    -3.928000000    -5.690000000    -1.493000000
C    -3.508000000    -4.523000000    -2.027000000
C    -2.688000000    -4.639000000    -3.156000000
H    -2.667000000    -5.584000000    -3.693000000
C    -2.236000000    -3.511000000    -3.787000000
O    -1.524000000    -3.695000000    -4.975000000
C    -1.489000000    -2.657000000    -5.914000000
C    -2.567000000    -2.341000000    -6.786000000
H    -3.505000000    -2.887000000    -6.722000000
C    -2.411000000    -1.392000000    -7.794000000
H    -3.254000000    -1.066000000    -8.398000000
C    -1.200000000    -0.798000000    -7.932000000
H    -1.106000000    -0.127000000    -8.782000000
C    -0.146000000    -0.957000000    -7.005000000
C    -0.309000000    -1.861000000    -6.000000000
H     0.539000000    -2.101000000    -5.365000000
O     7.322000000    -5.687000000    -3.346000000
H     6.522000000    -5.474000000    -2.866000000
H     7.152000000    -6.550000000    -3.723000000
O     5.909000000    -4.645000000     1.398000000
H     5.101000000    -4.160000000     1.233000000
H     6.502000000    -4.367000000     0.701000000
O     4.282000000    -8.058000000    -5.908000000
H     4.513000000    -7.141000000    -6.055000000
H     3.334000000    -8.089000000    -6.030000000
O     2.878000000    -3.250000000    -8.193000000
H     2.625000000    -3.694000000    -7.384000000
H     2.075000000    -2.829000000    -8.498000000
O    -0.920000000    -8.632000000     1.137000000
H    -0.584000000    -8.317000000     0.297000000
H    -0.589000000    -8.003000000     1.778000000
O     4.326000000    -5.107000000    -5.680000000
H     4.729000000    -4.803000000    -4.866000000
H     3.400000000    -4.883000000    -5.586000000
O     4.804000000    -8.502000000    -2.414000000
H     5.200000000    -7.793000000    -2.919000000
H     3.875000000    -8.470000000    -2.643000000
O     4.024000000    -3.399000000    -0.228000000
H     3.247000000    -3.950000000    -0.331000000
H     3.970000000    -2.772000000    -0.950000000
O     0.941000000    -6.976000000    -0.077000000
H     1.591000000    -7.665000000     0.059000000
H     1.422000000    -6.276000000    -0.519000000
O    -0.033000000    -6.428000000    -2.916000000
H     0.250000000    -6.504000000    -2.005000000
H     0.369000000    -5.616000000    -3.225000000
O     7.574000000    -3.497000000    -0.552000000
H     6.924000000    -3.096000000    -1.129000000
H     8.224000000    -3.871000000    -1.147000000
O     4.373000000    -5.478000000    -2.710000000
H     3.876000000    -5.625000000    -3.514000000
H     3.730000000    -5.136000000    -2.089000000
O     6.563000000    -2.153000000    -2.724000000
H     6.534000000    -1.816000000    -3.619000000
H     5.661000000    -2.413000000    -2.536000000
O     1.639000000    -8.538000000    -6.144000000
H     0.720000000    -8.294000000    -6.029000000
H     1.627000000    -9.493000000    -6.200000000
O     1.633000000    -4.425000000    -5.732000000
H     1.560000000    -4.525000000    -4.783000000
H     0.728000000    -4.351000000    -6.036000000
O    -0.803000000    -8.227000000    -4.671000000
H    -0.875000000    -8.971000000    -4.073000000
H    -0.806000000    -7.459000000    -4.100000000
O     2.079000000    -8.571000000    -3.073000000
H     1.548000000    -7.820000000    -3.336000000
H     2.266000000    -9.031000000    -3.891000000
O    -0.398000000    -5.070000000    -7.534000000
H    -1.195000000    -4.618000000    -7.810000000
H    -0.635000000    -5.998000000    -7.540000000
O     3.908000000    -2.349000000    -2.606000000
H     3.403000000    -3.067000000    -2.989000000
H     3.590000000    -1.566000000    -3.055000000
