201
-1237.84425
C    -4.332000000    -0.766000000    -1.644000000
H    -4.242000000     0.161000000    -2.204000000
C    -4.451000000    -0.790000000    -0.255000000
C    -4.555000000    -2.077000000     0.299000000
H    -4.655000000    -2.322000000     1.353000000
C    -4.173000000     0.383000000     0.563000000
O    -4.863000000     1.597000000     0.235000000
H    -3.092000000     0.571000000     0.487000000
O    -4.467000000     0.098000000     1.952000000
C    -3.583000000     0.435000000     2.922000000
C    -2.733000000    -0.606000000     3.280000000
H    -2.895000000    -1.620000000     2.921000000
C    -1.623000000    -0.368000000     4.091000000
O    -0.894000000    -1.488000000     4.465000000
C    -1.411000000     0.908000000     4.550000000
C    -0.232000000     1.124000000     5.499000000
H    -0.395000000     2.048000000     6.056000000
C     1.102000000     1.182000000     4.650000000
C     1.570000000     2.442000000     4.228000000
H     0.977000000     3.333000000     4.417000000
H    -0.196000000     0.338000000     6.258000000
C    -2.173000000     1.974000000     4.114000000
H    -1.943000000     2.992000000     4.418000000
C    -3.262000000     1.768000000     3.271000000
C    -4.068000000     2.996000000     2.742000000
H    -4.115000000     3.915000000     3.331000000
H    -5.115000000     2.716000000     2.612000000
C    -3.551000000     3.367000000     1.409000000
C    -2.579000000     4.406000000     1.332000000
H    -2.333000000     4.985000000     2.219000000
C    -4.006000000     2.726000000     0.250000000
C    -3.461000000     2.997000000    -0.992000000
H    -3.938000000     2.464000000    -1.810000000
C    -2.392000000     3.897000000    -1.057000000
O    -1.895000000     3.947000000    -2.349000000
C    -0.609000000     3.313000000    -2.612000000
C    -0.484000000     2.712000000    -3.983000000
C     0.735000000     2.147000000    -4.408000000
H     1.539000000     2.175000000    -3.677000000
C    -1.639000000     2.454000000    -4.724000000
H    -2.613000000     2.768000000    -4.358000000
O     0.496000000     4.248000000    -2.445000000
H    -0.573000000     2.531000000    -1.840000000
C    -2.019000000     4.623000000     0.086000000
C    -0.866000000     5.563000000    -0.004000000
H    -0.827000000     6.275000000     0.823000000
H    -0.846000000     6.165000000    -0.915000000
C     0.450000000     4.792000000    -0.036000000
C     1.135000000     4.613000000     1.177000000
H     0.753000000     5.037000000     2.102000000
C     1.118000000     4.330000000    -1.204000000
C     2.350000000     3.680000000    -1.116000000
H     2.798000000     3.357000000    -2.052000000
C     2.963000000     3.556000000     0.144000000
O     4.040000000     2.671000000     0.282000000
C     3.851000000     1.320000000     0.796000000
C     4.674000000     0.299000000    -0.177000000
C     4.840000000     0.450000000    -1.526000000
H     4.464000000     1.328000000    -2.046000000
C     5.335000000    -0.751000000     0.537000000
H     5.188000000    -0.941000000     1.597000000
O     4.290000000     1.399000000     2.125000000
H     2.810000000     0.969000000     0.736000000
C     2.378000000     3.977000000     1.290000000
C     3.074000000     3.868000000     2.706000000
H     2.813000000     4.787000000     3.235000000
H     4.140000000     3.999000000     2.509000000
C     2.626000000     2.519000000     3.319000000
C     3.279000000     1.387000000     2.964000000
C     2.958000000     0.162000000     3.480000000
H     3.456000000    -0.730000000     3.109000000
C     1.859000000     0.036000000     4.302000000
O     1.419000000    -1.227000000     4.480000000
C     0.295000000    -1.729000000     3.719000000
H     0.300000000    -1.147000000     2.785000000
C     0.433000000    -3.111000000     3.215000000
C    -0.672000000    -3.958000000     3.064000000
H    -1.681000000    -3.676000000     3.357000000
C     1.696000000    -3.586000000     2.956000000
H     2.511000000    -2.944000000     3.279000000
C     1.787000000    -4.803000000     2.330000000
O     3.107000000    -5.201000000     2.009000000
C     0.700000000    -5.623000000     2.070000000
H     0.930000000    -6.597000000     1.646000000
C    -0.560000000    -5.153000000     2.379000000
O    -1.597000000    -6.106000000     2.350000000
C    -2.915000000    -5.872000000     2.380000000
C    -3.477000000    -5.251000000     1.254000000
H    -2.871000000    -4.982000000     0.393000000
C    -3.729000000    -6.184000000     3.478000000
H    -3.253000000    -6.608000000     4.359000000
C    -5.065000000    -5.894000000     3.379000000
H    -5.762000000    -6.080000000     4.192000000
C    -5.600000000    -5.216000000     2.217000000
H    -6.643000000    -4.914000000     2.149000000
C    -4.861000000    -4.966000000     1.114000000
O    -5.382000000    -4.388000000     0.030000000
C    -4.917000000    -3.197000000    -0.490000000
C    -4.850000000    -3.092000000    -1.867000000
H    -5.010000000    -3.957000000    -2.506000000
C    -4.452000000    -1.921000000    -2.424000000
O    -4.071000000    -1.877000000    -3.746000000
C    -4.423000000    -0.933000000    -4.618000000
C    -3.369000000    -0.255000000    -5.260000000
H    -2.350000000    -0.559000000    -5.036000000
C    -5.706000000    -0.885000000    -5.088000000
H    -6.451000000    -1.583000000    -4.713000000
C    -5.988000000    -0.065000000    -6.189000000
H    -6.996000000    -0.052000000    -6.596000000
C    -4.970000000     0.772000000    -6.652000000
H    -5.256000000     1.549000000    -7.356000000
C    -3.652000000     0.645000000    -6.219000000
O    -2.612000000     1.421000000    -6.741000000
C    -1.544000000     1.824000000    -5.983000000
C    -0.275000000     1.397000000    -6.444000000
H    -0.161000000     0.862000000    -7.383000000
C     0.835000000     1.504000000    -5.588000000
O     2.015000000     0.825000000    -5.859000000
C     3.264000000     1.188000000    -5.497000000
C     4.135000000     0.310000000    -4.920000000
H     3.838000000    -0.734000000    -4.863000000
C     3.642000000     2.537000000    -5.683000000
H     2.944000000     3.262000000    -6.094000000
C     4.892000000     2.911000000    -5.156000000
H     5.290000000     3.923000000    -5.171000000
C     5.674000000     2.053000000    -4.433000000
H     6.609000000     2.275000000    -3.924000000
C     5.291000000     0.755000000    -4.312000000
O     6.033000000    -0.117000000    -3.537000000
C     5.747000000    -0.379000000    -2.200000000
C     6.435000000    -1.377000000    -1.522000000
H     7.036000000    -2.096000000    -2.074000000
C     6.144000000    -1.622000000    -0.185000000
O     6.774000000    -2.625000000     0.469000000
C     6.171000000    -3.361000000     1.489000000
C     6.669000000    -3.206000000     2.775000000
H     7.620000000    -2.743000000     3.029000000
C     5.897000000    -3.733000000     3.791000000
H     6.295000000    -3.657000000     4.800000000
C     4.779000000    -4.481000000     3.541000000
H     4.207000000    -4.905000000     4.362000000
C     4.250000000    -4.493000000     2.255000000
C     4.925000000    -3.886000000     1.193000000
H     4.507000000    -3.845000000     0.190000000
O    -1.406000000    -8.398000000     0.844000000
H    -1.441000000    -7.519000000     1.223000000
H    -1.734000000    -8.971000000     1.536000000
O     6.217000000    -6.553000000    -4.717000000
H     5.818000000    -6.024000000    -4.026000000
H     5.753000000    -7.389000000    -4.677000000
O    -1.787000000    -8.635000000    -3.449000000
H    -2.471000000    -8.286000000    -2.878000000
H    -1.343000000    -9.294000000    -2.916000000
O     4.318000000    -7.531000000     0.283000000
H     3.572000000    -7.942000000     0.721000000
H     4.620000000    -8.189000000    -0.343000000
O    -3.712000000    -7.858000000    -1.784000000
H    -4.031000000    -8.144000000    -0.927000000
H    -3.291000000    -7.015000000    -1.614000000
O     3.029000000    -6.924000000    -3.326000000
H     2.498000000    -7.473000000    -3.903000000
H     2.408000000    -6.299000000    -2.952000000
O    -2.513000000    -4.286000000    -4.169000000
H    -3.057000000    -3.631000000    -3.731000000
H    -1.657000000    -3.868000000    -4.254000000
O     4.850000000    -3.459000000    -4.018000000
H     4.120000000    -3.099000000    -4.522000000
H     4.436000000    -4.035000000    -3.375000000
O     5.136000000    -6.053000000    -1.999000000
H     4.399000000    -6.187000000    -2.595000000
H     4.793000000    -6.290000000    -1.137000000
O     0.065000000    -6.631000000    -4.072000000
H     0.135000000    -6.179000000    -3.231000000
H    -0.403000000    -7.441000000    -3.870000000
O     0.483000000    -7.995000000    -1.158000000
H     0.441000000    -7.042000000    -1.235000000
H    -0.314000000    -8.233000000    -0.684000000
O     3.667000000    -2.413000000    -7.221000000
H     3.178000000    -2.630000000    -6.427000000
H     3.089000000    -2.676000000    -7.937000000
O     1.555000000    -6.189000000    -6.476000000
H     0.634000000    -6.246000000    -6.730000000
H     1.581000000    -6.543000000    -5.587000000
O    -0.143000000    -2.879000000    -4.337000000
H     0.210000000    -2.663000000    -3.474000000
H     0.434000000    -3.569000000    -4.665000000
O    -2.069000000    -5.703000000    -1.775000000
H    -2.328000000    -5.127000000    -2.494000000
H    -1.114000000    -5.645000000    -1.754000000
O     2.573000000    -9.653000000    -0.052000000
H     1.948000000    -9.004000000    -0.376000000
H     2.120000000   -10.490000000    -0.150000000
O     0.197000000    -1.763000000    -6.974000000
H     0.017000000    -2.626000000    -7.346000000
H    -0.072000000    -1.836000000    -6.058000000
O    -3.255000000    -6.721000000    -5.088000000
H    -2.691000000    -7.358000000    -4.650000000
H    -2.853000000    -5.873000000    -4.897000000
O     2.480000000    -3.944000000    -5.197000000
H     2.302000000    -4.277000000    -4.317000000
H     2.239000000    -4.664000000    -5.779000000
