201
-1225.46345
C     4.113000000     1.340000000     3.109000000
H     3.697000000     1.620000000     4.073000000
C     3.603000000     1.923000000     1.945000000
C     4.276000000     1.587000000     0.746000000
H     3.933000000     2.004000000    -0.197000000
C     2.500000000     2.927000000     1.952000000
O     1.971000000     3.220000000     3.244000000
H     1.759000000     2.311000000     1.422000000
O     2.693000000     4.041000000     1.095000000
C     1.623000000     4.213000000     0.233000000
C     1.752000000     3.869000000    -1.128000000
H     2.719000000     3.393000000    -1.264000000
C     0.670000000     3.961000000    -1.983000000
O     0.765000000     3.491000000    -3.262000000
C    -0.497000000     4.531000000    -1.577000000
C    -1.650000000     4.633000000    -2.444000000
H    -2.335000000     5.437000000    -2.166000000
C    -2.395000000     3.298000000    -2.461000000
C    -3.502000000     3.153000000    -1.644000000
H    -3.971000000     3.954000000    -1.078000000
H    -1.332000000     4.857000000    -3.465000000
C    -0.670000000     4.815000000    -0.228000000
H    -1.612000000     5.225000000     0.126000000
C     0.384000000     4.698000000     0.689000000
C     0.048000000     5.171000000     2.121000000
H    -0.738000000     5.927000000     2.050000000
H     0.952000000     5.723000000     2.387000000
C    -0.289000000     4.001000000     3.009000000
C    -1.675000000     3.785000000     3.209000000
H    -2.339000000     4.471000000     2.690000000
C     0.629000000     3.108000000     3.504000000
C     0.154000000     2.101000000     4.372000000
H     0.852000000     1.424000000     4.858000000
C    -1.138000000     1.792000000     4.431000000
O    -1.479000000     0.524000000     4.864000000
C    -1.610000000    -0.463000000     3.852000000
C    -0.674000000    -1.650000000     4.009000000
C    -0.945000000    -2.820000000     3.173000000
H    -1.838000000    -2.802000000     2.554000000
C     0.488000000    -1.676000000     4.790000000
H     0.647000000    -0.825000000     5.447000000
O    -2.959000000    -0.823000000     3.783000000
H    -1.368000000     0.038000000     2.903000000
C    -2.117000000     2.598000000     3.822000000
C    -3.538000000     2.198000000     3.906000000
H    -4.179000000     3.079000000     3.832000000
H    -3.731000000     1.701000000     4.859000000
C    -3.921000000     1.279000000     2.754000000
C    -4.432000000     1.821000000     1.538000000
H    -4.537000000     2.903000000     1.559000000
C    -3.738000000    -0.127000000     2.813000000
C    -4.150000000    -0.998000000     1.748000000
H    -3.820000000    -2.031000000     1.665000000
C    -4.706000000    -0.414000000     0.590000000
O    -4.831000000    -1.284000000    -0.455000000
C    -3.793000000    -1.216000000    -1.480000000
C    -3.474000000    -2.623000000    -1.964000000
C    -3.692000000    -3.723000000    -1.169000000
H    -4.384000000    -3.602000000    -0.339000000
C    -2.790000000    -2.807000000    -3.228000000
H    -2.714000000    -1.969000000    -3.917000000
O    -4.207000000    -0.372000000    -2.603000000
H    -2.934000000    -0.694000000    -1.034000000
C    -4.798000000     1.003000000     0.494000000
C    -5.275000000     1.595000000    -0.753000000
H    -5.686000000     2.589000000    -0.566000000
H    -6.018000000     0.961000000    -1.240000000
C    -4.143000000     1.896000000    -1.658000000
C    -3.703000000     0.866000000    -2.546000000
C    -2.659000000     1.119000000    -3.356000000
H    -2.357000000     0.450000000    -4.158000000
C    -2.008000000     2.302000000    -3.329000000
O    -0.915000000     2.352000000    -4.219000000
C     0.382000000     2.173000000    -3.627000000
H     0.393000000     1.627000000    -2.673000000
C     1.255000000     1.509000000    -4.663000000
C     2.651000000     1.631000000    -4.428000000
H     2.967000000     2.472000000    -3.815000000
C     0.758000000     0.490000000    -5.492000000
H    -0.307000000     0.307000000    -5.615000000
C     1.730000000    -0.257000000    -6.268000000
O     1.262000000    -1.282000000    -7.157000000
C     3.093000000    -0.045000000    -6.083000000
H     3.859000000    -0.679000000    -6.521000000
C     3.543000000     0.841000000    -5.117000000
O     4.933000000     0.876000000    -4.993000000
C     5.450000000     1.335000000    -3.810000000
C     5.396000000     0.477000000    -2.725000000
H     4.944000000    -0.511000000    -2.700000000
C     6.017000000     2.607000000    -3.709000000
H     5.780000000     3.295000000    -4.516000000
C     6.496000000     3.083000000    -2.488000000
H     6.858000000     4.105000000    -2.416000000
C     6.403000000     2.289000000    -1.371000000
H     6.645000000     2.754000000    -0.419000000
C     5.913000000     0.999000000    -1.560000000
O     5.827000000     0.177000000    -0.476000000
C     5.217000000     0.560000000     0.685000000
C     5.637000000    -0.111000000     1.870000000
H     6.421000000    -0.864000000     1.873000000
C     5.127000000     0.328000000     3.059000000
O     5.716000000    -0.052000000     4.208000000
C     5.149000000    -0.628000000     5.266000000
C     4.076000000    -1.466000000     5.045000000
H     3.926000000    -1.688000000     3.992000000
C     5.385000000    -0.212000000     6.616000000
H     6.005000000     0.649000000     6.855000000
C     4.485000000    -0.636000000     7.641000000
H     4.538000000    -0.312000000     8.677000000
C     3.452000000    -1.537000000     7.428000000
H     2.780000000    -1.911000000     8.196000000
C     3.223000000    -1.941000000     6.084000000
O     2.276000000    -2.923000000     5.814000000
C     1.306000000    -2.764000000     4.902000000
C     1.022000000    -3.910000000     4.164000000
H     1.686000000    -4.755000000     4.325000000
C    -0.164000000    -3.973000000     3.301000000
O    -0.452000000    -5.163000000     2.722000000
C    -1.717000000    -5.548000000     2.395000000
C    -2.072000000    -5.544000000     1.029000000
H    -1.361000000    -5.207000000     0.279000000
C    -2.569000000    -6.064000000     3.396000000
H    -2.269000000    -6.050000000     4.441000000
C    -3.797000000    -6.634000000     2.975000000
H    -4.454000000    -7.080000000     3.717000000
C    -4.143000000    -6.627000000     1.578000000
H    -5.120000000    -6.946000000     1.226000000
C    -3.252000000    -6.081000000     0.607000000
O    -3.615000000    -6.042000000    -0.775000000
C    -3.387000000    -4.972000000    -1.621000000
C    -2.737000000    -5.242000000    -2.834000000
H    -2.532000000    -6.276000000    -3.100000000
C    -2.425000000    -4.150000000    -3.595000000
O    -1.837000000    -4.322000000    -4.825000000
C    -1.481000000    -3.339000000    -5.808000000
C    -2.460000000    -3.088000000    -6.750000000
H    -3.481000000    -3.403000000    -6.551000000
C    -2.176000000    -2.239000000    -7.813000000
H    -3.008000000    -2.125000000    -8.503000000
C    -0.924000000    -1.649000000    -7.938000000
H    -0.675000000    -0.928000000    -8.712000000
C     0.031000000    -1.930000000    -6.988000000
C    -0.181000000    -2.809000000    -5.988000000
H     0.648000000    -2.957000000    -5.300000000
O     3.002000000    -2.661000000    -2.319000000
H     2.559000000    -3.488000000    -2.130000000
H     2.313000000    -2.000000000    -2.251000000
O     5.713000000    -4.456000000    -2.320000000
H     5.392000000    -3.583000000    -2.093000000
H     6.285000000    -4.698000000    -1.592000000
O     4.272000000    -4.883000000     4.738000000
H     4.179000000    -4.111000000     5.296000000
H     4.279000000    -4.535000000     3.847000000
O     5.134000000    -3.902000000    -5.052000000
H     5.002000000    -4.028000000    -4.113000000
H     4.478000000    -4.465000000    -5.464000000
O     1.595000000    -8.418000000    -3.096000000
H     2.086000000    -8.859000000    -2.403000000
H     1.537000000    -9.066000000    -3.798000000
O     4.812000000    -7.258000000    -2.525000000
H     5.173000000    -6.398000000    -2.739000000
H     4.291000000    -7.109000000    -1.736000000
O     3.136000000    -5.898000000    -5.356000000
H     2.855000000    -6.728000000    -5.740000000
H     2.521000000    -5.745000000    -4.639000000
O     6.036000000    -2.541000000    -0.242000000
H     5.890000000    -1.607000000    -0.393000000
H     6.977000000    -2.614000000    -0.087000000
O     4.075000000    -6.486000000    -0.073000000
H     4.552000000    -6.207000000     0.708000000
H     3.299000000    -5.926000000    -0.093000000
O     5.806000000    -6.799000000     2.224000000
H     6.722000000    -6.607000000     2.425000000
H     5.346000000    -5.977000000     2.393000000
O     4.637000000    -4.188000000     1.925000000
H     4.860000000    -3.738000000     1.110000000
H     3.720000000    -4.440000000     1.815000000
O     1.478000000    -5.740000000    -3.097000000
H     1.402000000    -6.686000000    -2.971000000
H     1.407000000    -5.375000000    -2.215000000
O     3.050000000    -9.338000000     1.827000000
H     2.356000000    -8.680000000     1.793000000
H     3.851000000    -8.852000000     1.628000000
O     7.508000000    -5.302000000     0.026000000
H     6.949000000    -4.537000000     0.165000000
H     7.934000000    -5.444000000     0.871000000
O    -0.970000000    -8.916000000     2.443000000
H    -1.892000000    -8.917000000     2.185000000
H    -0.712000000    -7.995000000     2.407000000
O     0.694000000    -7.767000000    -0.099000000
H     0.849000000    -6.865000000    -0.381000000
H     0.395000000    -8.217000000    -0.889000000
O     1.609000000    -7.129000000     2.216000000
H     1.822000000    -6.200000000     2.308000000
H     1.196000000    -7.195000000     1.355000000
O     5.713000000    -8.836000000    -0.116000000
H     4.778000000    -8.865000000    -0.321000000
H     5.957000000    -7.919000000    -0.241000000
O     3.721000000    -7.601000000     5.667000000
H     3.831000000    -6.899000000     5.025000000
H     2.806000000    -7.869000000     5.575000000
