201
-1244.32750
C     4.635000000     1.315000000     2.384000000
H     4.131000000     1.377000000     3.345000000
C     4.235000000     2.102000000     1.289000000
C     4.967000000     2.014000000     0.084000000
H     4.669000000     2.636000000    -0.756000000
C     2.942000000     2.937000000     1.242000000
O     2.640000000     3.318000000     2.567000000
H     2.097000000     2.298000000     0.945000000
O     3.020000000     4.131000000     0.445000000
C     1.864000000     4.529000000    -0.231000000
C     1.857000000     4.266000000    -1.598000000
H     2.748000000     3.878000000    -2.086000000
C     0.669000000     4.217000000    -2.341000000
O     0.711000000     3.533000000    -3.567000000
C    -0.497000000     4.640000000    -1.757000000
C    -1.789000000     4.605000000    -2.599000000
H    -2.437000000     5.430000000    -2.298000000
C    -2.547000000     3.236000000    -2.392000000
C    -3.467000000     3.081000000    -1.389000000
H    -3.592000000     3.904000000    -0.689000000
H    -1.583000000     4.858000000    -3.641000000
C    -0.528000000     5.076000000    -0.410000000
H    -1.452000000     5.509000000    -0.037000000
C     0.652000000     4.977000000     0.356000000
C     0.570000000     5.338000000     1.859000000
H    -0.239000000     6.062000000     1.981000000
H     1.477000000     5.857000000     2.174000000
C     0.344000000     4.106000000     2.675000000
C    -0.941000000     3.832000000     3.174000000
H    -1.662000000     4.580000000     2.854000000
C     1.358000000     3.194000000     2.993000000
C     1.118000000     2.057000000     3.814000000
H     1.909000000     1.452000000     4.250000000
C    -0.177000000     1.753000000     4.198000000
O    -0.380000000     0.595000000     4.907000000
C    -0.976000000    -0.391000000     4.041000000
C    -0.400000000    -1.790000000     4.193000000
C    -1.097000000    -2.880000000     3.660000000
H    -2.028000000    -2.640000000     3.153000000
C     0.812000000    -1.989000000     4.861000000
H     1.310000000    -1.130000000     5.305000000
O    -2.420000000    -0.408000000     4.259000000
H    -0.669000000    -0.098000000     3.026000000
C    -1.231000000     2.664000000     3.891000000
C    -2.697000000     2.435000000     4.240000000
H    -3.256000000     3.362000000     4.387000000
H    -2.747000000     2.070000000     5.268000000
C    -3.331000000     1.506000000     3.170000000
C    -4.081000000     1.961000000     2.118000000
H    -4.037000000     3.036000000     1.966000000
C    -3.140000000     0.136000000     3.277000000
C    -3.758000000    -0.802000000     2.402000000
H    -3.710000000    -1.886000000     2.461000000
C    -4.465000000    -0.243000000     1.298000000
O    -4.746000000    -1.144000000     0.262000000
C    -3.925000000    -1.231000000    -0.882000000
C    -3.868000000    -2.642000000    -1.381000000
C    -4.409000000    -3.669000000    -0.532000000
H    -4.869000000    -3.465000000     0.432000000
C    -3.238000000    -3.026000000    -2.569000000
H    -2.878000000    -2.213000000    -3.194000000
O    -4.455000000    -0.442000000    -1.933000000
H    -2.928000000    -0.989000000    -0.486000000
C    -4.605000000     1.153000000     1.093000000
C    -5.165000000     1.694000000    -0.093000000
H    -5.566000000     2.685000000     0.129000000
H    -5.903000000     1.042000000    -0.566000000
C    -4.188000000     1.876000000    -1.251000000
C    -3.828000000     0.805000000    -2.086000000
C    -2.962000000     1.026000000    -3.124000000
H    -2.942000000     0.245000000    -3.879000000
C    -2.211000000     2.190000000    -3.239000000
O    -1.209000000     2.316000000    -4.231000000
C     0.105000000     2.201000000    -3.709000000
H     0.217000000     1.915000000    -2.653000000
C     0.976000000     1.285000000    -4.583000000
C     2.359000000     1.489000000    -4.637000000
H     2.736000000     2.389000000    -4.157000000
C     0.445000000     0.151000000    -5.087000000
H    -0.623000000    -0.002000000    -4.952000000
C     1.236000000    -0.818000000    -5.694000000
O     0.803000000    -2.034000000    -6.168000000
C     2.570000000    -0.587000000    -5.812000000
H     3.263000000    -1.325000000    -6.206000000
C     3.131000000     0.565000000    -5.265000000
O     4.438000000     0.774000000    -5.356000000
C     5.227000000     1.438000000    -4.529000000
C     5.416000000     0.911000000    -3.301000000
H     4.935000000    -0.025000000    -3.028000000
C     5.959000000     2.591000000    -4.919000000
H     5.717000000     2.992000000    -5.900000000
C     6.862000000     3.145000000    -4.019000000
H     7.331000000     4.088000000    -4.290000000
C     6.980000000     2.631000000    -2.746000000
H     7.750000000     3.178000000    -2.208000000
C     6.308000000     1.469000000    -2.427000000
O     6.684000000     0.937000000    -1.200000000
C     6.037000000     1.141000000     0.006000000
C     6.297000000     0.245000000     1.018000000
H     6.980000000    -0.571000000     0.799000000
C     5.572000000     0.340000000     2.223000000
O     5.869000000    -0.551000000     3.240000000
C     5.102000000    -0.852000000     4.414000000
C     4.184000000    -1.916000000     4.264000000
H     4.019000000    -2.429000000     3.320000000
C     5.404000000    -0.368000000     5.623000000
H     6.159000000     0.405000000     5.737000000
C     4.696000000    -0.780000000     6.694000000
H     4.864000000    -0.349000000     7.678000000
C     3.723000000    -1.789000000     6.583000000
H     3.218000000    -2.144000000     7.478000000
C     3.540000000    -2.460000000     5.404000000
O     2.662000000    -3.486000000     5.266000000
C     1.431000000    -3.230000000     4.763000000
C     0.740000000    -4.260000000     4.216000000
H     1.187000000    -5.251000000     4.215000000
C    -0.442000000    -4.107000000     3.570000000
O    -1.196000000    -5.165000000     3.083000000
C    -2.545000000    -5.419000000     2.818000000
C    -2.950000000    -5.562000000     1.464000000
H    -2.218000000    -5.337000000     0.692000000
C    -3.486000000    -5.580000000     3.834000000
H    -3.147000000    -5.367000000     4.845000000
C    -4.819000000    -5.965000000     3.539000000
H    -5.511000000    -6.098000000     4.366000000
C    -5.186000000    -6.174000000     2.196000000
H    -6.213000000    -6.446000000     1.971000000
C    -4.272000000    -5.912000000     1.168000000
O    -4.780000000    -5.880000000    -0.128000000
C    -4.351000000    -4.937000000    -1.010000000
C    -3.698000000    -5.354000000    -2.159000000
H    -3.600000000    -6.387000000    -2.484000000
C    -3.151000000    -4.378000000    -2.961000000
O    -2.570000000    -4.750000000    -4.138000000
C    -2.136000000    -3.902000000    -5.095000000
C    -3.112000000    -3.441000000    -6.016000000
H    -4.150000000    -3.751000000    -6.106000000
C    -2.756000000    -2.440000000    -6.974000000
H    -3.534000000    -2.060000000    -7.631000000
C    -1.465000000    -1.906000000    -6.922000000
H    -1.169000000    -1.097000000    -7.585000000
C    -0.483000000    -2.392000000    -6.100000000
C    -0.842000000    -3.397000000    -5.182000000
H    -0.171000000    -3.720000000    -4.390000000
O     3.372000000    -7.016000000    -1.064000000
H     2.561000000    -6.557000000    -1.281000000
H     3.326000000    -7.150000000    -0.118000000
O     4.881000000    -3.781000000     1.396000000
H     4.812000000    -2.929000000     0.965000000
H     3.986000000    -4.119000000     1.405000000
O     6.210000000    -5.757000000     0.305000000
H     5.713000000    -5.091000000     0.779000000
H     5.727000000    -5.881000000    -0.512000000
O     1.102000000    -8.936000000    -4.508000000
H     1.370000000    -8.279000000    -3.865000000
H     0.378000000    -8.527000000    -4.981000000
O     7.272000000    -2.451000000    -0.994000000
H     7.277000000    -2.992000000    -0.205000000
H     6.362000000    -2.169000000    -1.085000000
O    -1.534000000    -8.670000000    -2.334000000
H    -1.376000000    -8.655000000    -1.390000000
H    -1.684000000    -9.593000000    -2.538000000
O     5.805000000    -5.562000000     4.259000000
H     5.703000000    -5.982000000     5.113000000
H     4.943000000    -5.639000000     3.849000000
O     4.312000000    -1.869000000    -0.492000000
H     3.977000000    -0.984000000    -0.346000000
H     3.661000000    -2.281000000    -1.060000000
O     1.306000000    -9.300000000     2.539000000
H     0.975000000    -8.572000000     2.013000000
H     0.831000000   -10.065000000     2.215000000
O     1.442000000    -7.747000000     4.949000000
H     0.511000000    -7.882000000     5.122000000
H     1.662000000    -8.408000000     4.292000000
O     0.483000000    -7.036000000    -2.551000000
H     0.520000000    -6.399000000    -1.837000000
H    -0.411000000    -7.378000000    -2.520000000
O    -1.073000000    -8.634000000     0.471000000
H    -0.473000000    -8.073000000     0.962000000
H    -1.558000000    -9.113000000     1.143000000
O     4.956000000    -2.943000000    -3.309000000
H     4.450000000    -2.936000000    -4.121000000
H     5.791000000    -2.537000000    -3.543000000
O     3.412000000    -5.893000000     3.103000000
H     2.799000000    -6.460000000     3.571000000
H     2.862000000    -5.384000000     2.508000000
O     1.847000000    -5.661000000    -4.485000000
H     1.217000000    -5.880000000    -5.171000000
H     1.576000000    -6.189000000    -3.734000000
O     7.382000000    -3.496000000     2.448000000
H     6.425000000    -3.502000000     2.407000000
H     7.610000000    -4.344000000     2.828000000
O     0.531000000    -6.934000000     1.654000000
H     0.760000000    -6.379000000     0.909000000
H     0.365000000    -6.320000000     2.369000000
O     3.283000000    -9.396000000    -2.415000000
H     3.450000000    -8.455000000    -2.361000000
H     2.360000000    -9.462000000    -2.660000000
O     5.204000000    -6.022000000    -3.987000000
H     4.624000000    -6.031000000    -4.749000000
H     5.001000000    -5.199000000    -3.541000000
