201
-1260.23698
C     4.570000000     0.703000000     2.118000000
H     3.884000000     0.574000000     2.952000000
C     4.301000000     1.710000000     1.151000000
C     5.064000000     1.821000000    -0.020000000
H     4.723000000     2.461000000    -0.830000000
C     3.042000000     2.545000000     1.343000000
O     2.761000000     2.879000000     2.742000000
H     2.193000000     1.969000000     0.945000000
O     3.143000000     3.864000000     0.694000000
C     2.072000000     4.170000000    -0.149000000
C     2.015000000     3.745000000    -1.494000000
H     2.795000000     3.239000000    -2.056000000
C     0.745000000     3.925000000    -2.115000000
O     0.749000000     3.337000000    -3.337000000
C    -0.397000000     4.469000000    -1.546000000
C    -1.588000000     4.680000000    -2.395000000
H    -2.056000000     5.576000000    -1.981000000
C    -2.566000000     3.529000000    -2.419000000
C    -3.490000000     3.377000000    -1.393000000
H    -3.673000000     4.168000000    -0.671000000
H    -1.229000000     4.903000000    -3.401000000
C    -0.306000000     4.847000000    -0.178000000
H    -1.150000000     5.265000000     0.363000000
C     0.911000000     4.662000000     0.493000000
C     0.951000000     5.011000000     2.011000000
H     0.303000000     5.845000000     2.289000000
H     1.923000000     5.440000000     2.260000000
C     0.543000000     3.819000000     2.824000000
C    -0.769000000     3.650000000     3.199000000
H    -1.449000000     4.433000000     2.874000000
C     1.497000000     2.842000000     3.206000000
C     1.091000000     1.694000000     3.881000000
H     1.752000000     0.864000000     4.116000000
C    -0.271000000     1.595000000     4.205000000
O    -0.713000000     0.468000000     4.807000000
C    -1.155000000    -0.670000000     3.980000000
C    -0.446000000    -2.042000000     4.297000000
C    -1.081000000    -3.211000000     3.940000000
H    -2.071000000    -3.188000000     3.491000000
C     0.875000000    -2.124000000     4.811000000
H     1.414000000    -1.187000000     4.926000000
O    -2.645000000    -0.731000000     4.035000000
H    -0.795000000    -0.361000000     2.988000000
C    -1.202000000     2.548000000     3.956000000
C    -2.718000000     2.413000000     4.161000000
H    -3.154000000     3.413000000     4.201000000
H    -3.014000000     1.856000000     5.052000000
C    -3.343000000     1.452000000     3.138000000
C    -3.898000000     2.141000000     2.039000000
H    -3.898000000     3.220000000     1.910000000
C    -3.374000000     0.029000000     3.151000000
C    -4.000000000    -0.660000000     2.123000000
H    -3.896000000    -1.738000000     2.031000000
C    -4.656000000     0.010000000     1.118000000
O    -5.072000000    -0.744000000     0.079000000
C    -4.295000000    -0.753000000    -1.125000000
C    -4.024000000    -2.234000000    -1.463000000
C    -4.312000000    -3.261000000    -0.509000000
H    -4.799000000    -3.077000000     0.445000000
C    -3.537000000    -2.618000000    -2.689000000
H    -3.574000000    -1.844000000    -3.451000000
O    -4.769000000     0.056000000    -2.172000000
H    -3.278000000    -0.450000000    -0.834000000
C    -4.659000000     1.436000000     1.034000000
C    -5.240000000     2.082000000    -0.166000000
H    -5.729000000     3.031000000     0.060000000
H    -6.050000000     1.431000000    -0.503000000
C    -4.231000000     2.235000000    -1.274000000
C    -4.105000000     1.249000000    -2.271000000
C    -3.124000000     1.366000000    -3.261000000
H    -2.977000000     0.463000000    -3.848000000
C    -2.289000000     2.461000000    -3.314000000
O    -1.236000000     2.475000000    -4.224000000
C     0.023000000     2.127000000    -3.570000000
H    -0.227000000     1.618000000    -2.628000000
C     0.849000000     1.210000000    -4.439000000
C     2.198000000     1.469000000    -4.623000000
H     2.670000000     2.217000000    -3.991000000
C     0.287000000     0.150000000    -5.091000000
H    -0.788000000    -0.009000000    -5.114000000
C     1.045000000    -0.622000000    -5.928000000
O     0.500000000    -1.738000000    -6.519000000
C     2.416000000    -0.418000000    -6.004000000
H     3.033000000    -0.978000000    -6.702000000
C     3.024000000     0.692000000    -5.453000000
O     4.448000000     0.928000000    -5.547000000
C     5.193000000     1.631000000    -4.574000000
C     5.532000000     0.944000000    -3.373000000
H     4.995000000     0.043000000    -3.088000000
C     5.656000000     2.901000000    -4.867000000
H     5.310000000     3.451000000    -5.739000000
C     6.512000000     3.568000000    -3.939000000
H     6.887000000     4.581000000    -4.057000000
C     6.986000000     2.840000000    -2.829000000
H     7.672000000     3.318000000    -2.135000000
C     6.451000000     1.559000000    -2.525000000
O     6.891000000     0.926000000    -1.407000000
C     6.171000000     0.960000000    -0.222000000
C     6.378000000    -0.030000000     0.729000000
H     7.180000000    -0.748000000     0.577000000
C     5.698000000    -0.158000000     1.963000000
O     6.120000000    -1.088000000     2.940000000
C     5.417000000    -1.343000000     4.063000000
C     4.469000000    -2.397000000     4.203000000
H     4.261000000    -3.050000000     3.359000000
C     5.652000000    -0.473000000     5.153000000
H     6.446000000     0.269000000     5.139000000
C     4.898000000    -0.632000000     6.337000000
H     5.041000000     0.041000000     7.178000000
C     3.946000000    -1.688000000     6.477000000
H     3.383000000    -1.766000000     7.404000000
C     3.661000000    -2.569000000     5.412000000
O     2.695000000    -3.564000000     5.464000000
C     1.429000000    -3.409000000     4.982000000
C     0.725000000    -4.568000000     4.825000000
H     1.283000000    -5.456000000     5.111000000
C    -0.510000000    -4.485000000     4.173000000
O    -1.177000000    -5.643000000     3.858000000
C    -2.468000000    -5.641000000     3.314000000
C    -2.695000000    -5.575000000     1.992000000
H    -1.857000000    -5.361000000     1.334000000
C    -3.493000000    -5.869000000     4.250000000
H    -3.213000000    -5.981000000     5.294000000
C    -4.844000000    -5.878000000     3.805000000
H    -5.619000000    -5.917000000     4.566000000
C    -5.036000000    -5.626000000     2.453000000
H    -6.067000000    -5.512000000     2.129000000
C    -3.951000000    -5.460000000     1.548000000
O    -4.099000000    -5.615000000     0.162000000
C    -3.887000000    -4.579000000    -0.692000000
C    -3.293000000    -4.901000000    -1.901000000
H    -2.975000000    -5.936000000    -2.004000000
C    -3.235000000    -3.922000000    -2.920000000
O    -2.828000000    -4.376000000    -4.161000000
C    -2.443000000    -3.563000000    -5.183000000
C    -3.329000000    -3.251000000    -6.180000000
H    -4.377000000    -3.515000000    -6.069000000
C    -2.986000000    -2.514000000    -7.316000000
H    -3.671000000    -2.164000000    -8.084000000
C    -1.688000000    -2.035000000    -7.375000000
H    -1.360000000    -1.336000000    -8.140000000
C    -0.807000000    -2.264000000    -6.364000000
C    -1.122000000    -3.039000000    -5.277000000
H    -0.385000000    -3.269000000    -4.512000000
O     2.984000000    -6.020000000    -2.251000000
H     2.498000000    -5.450000000    -1.655000000
H     2.316000000    -6.380000000    -2.836000000
O     4.486000000    -3.032000000    -0.269000000
H     4.235000000    -2.603000000    -1.087000000
H     3.712000000    -3.533000000    -0.014000000
O    -0.181000000    -8.851000000     2.405000000
H    -0.698000000    -9.187000000     3.138000000
H    -0.828000000    -8.478000000     1.807000000
O     4.313000000    -8.001000000    -0.677000000
H     4.276000000    -7.546000000     0.165000000
H     3.619000000    -7.597000000    -1.198000000
O     7.134000000    -2.430000000    -1.263000000
H     6.851000000    -2.515000000    -2.173000000
H     6.322000000    -2.456000000    -0.756000000
O    -1.361000000    -8.039000000    -1.548000000
H    -1.729000000    -8.273000000    -0.696000000
H    -1.204000000    -8.879000000    -1.980000000
O     6.739000000    -4.409000000     1.032000000
H     6.287000000    -5.199000000     1.328000000
H     6.062000000    -3.733000000     1.030000000
O     2.681000000    -3.497000000    -5.567000000
H     2.392000000    -4.404000000    -5.473000000
H     1.873000000    -3.001000000    -5.701000000
O     2.568000000    -0.311000000    -2.046000000
H     1.820000000    -0.388000000    -1.454000000
H     2.828000000    -1.215000000    -2.222000000
O     2.203000000   -10.333000000     0.703000000
H     2.124000000    -9.380000000     0.654000000
H     1.341000000   -10.631000000     0.995000000
O     1.877000000    -7.366000000     3.791000000
H     1.421000000    -7.506000000     2.961000000
H     1.730000000    -8.173000000     4.284000000
O     0.029000000    -6.201000000    -2.972000000
H     0.336000000    -5.649000000    -2.253000000
H    -0.586000000    -6.809000000    -2.562000000
O    -2.461000000    -8.576000000     0.941000000
H    -3.211000000    -8.042000000     0.676000000
H    -2.849000000    -9.384000000     1.276000000
O     3.531000000    -2.569000000    -3.107000000
H     2.882000000    -2.748000000    -3.787000000
H     4.374000000    -2.718000000    -3.535000000
O     3.571000000    -6.413000000     1.617000000
H     2.923000000    -6.657000000     2.278000000
H     3.215000000    -5.620000000     1.215000000
O     1.325000000    -6.021000000    -5.460000000
H     0.655000000    -5.901000000    -6.133000000
H     0.834000000    -6.096000000    -4.643000000
O     1.181000000    -7.718000000    -0.569000000
H     1.179000000    -6.778000000    -0.388000000
H     0.362000000    -7.873000000    -1.039000000
O     4.607000000    -8.761000000    -3.604000000
H     4.563000000    -7.816000000    -3.456000000
H     4.165000000    -9.143000000    -2.846000000
O     5.691000000    -5.801000000    -3.318000000
H     6.373000000    -5.903000000    -2.654000000
H     4.874000000    -5.777000000    -2.820000000
