201
-1256.00372
C     4.536000000     0.856000000     1.306000000
H     3.934000000     0.563000000     2.162000000
C     4.199000000     2.072000000     0.710000000
C     5.003000000     2.502000000    -0.323000000
H     4.707000000     3.428000000    -0.808000000
C     2.960000000     2.753000000     1.221000000
O     2.852000000     2.733000000     2.653000000
H     2.089000000     2.208000000     0.828000000
O     2.955000000     4.202000000     0.884000000
C     1.735000000     4.677000000     0.405000000
C     1.508000000     4.610000000    -0.982000000
H     2.252000000     4.375000000    -1.739000000
C     0.235000000     4.862000000    -1.459000000
O    -0.001000000     4.401000000    -2.736000000
C    -0.865000000     5.097000000    -0.505000000
C    -2.310000000     5.109000000    -1.036000000
H    -2.859000000     5.789000000    -0.381000000
C    -2.951000000     3.742000000    -1.131000000
C    -3.859000000     3.365000000    -0.125000000
H    -4.014000000     4.085000000     0.675000000
H    -2.415000000     5.554000000    -2.028000000
C    -0.643000000     5.154000000     0.828000000
H    -1.495000000     5.187000000     1.502000000
C     0.678000000     4.900000000     1.321000000
C     0.873000000     4.830000000     2.830000000
H     0.079000000     5.381000000     3.339000000
H     1.864000000     5.148000000     3.161000000
C     0.605000000     3.420000000     3.296000000
C    -0.707000000     3.035000000     3.716000000
H    -1.547000000     3.718000000     3.819000000
C     1.632000000     2.438000000     3.256000000
C     1.405000000     1.205000000     3.783000000
H     2.257000000     0.538000000     3.884000000
C     0.090000000     0.782000000     4.162000000
O    -0.037000000    -0.499000000     4.609000000
C    -0.621000000    -1.457000000     3.683000000
C     0.078000000    -2.755000000     3.742000000
C    -0.669000000    -3.869000000     3.329000000
H    -1.696000000    -3.729000000     3.002000000
C     1.418000000    -2.849000000     4.074000000
H     1.940000000    -1.967000000     4.436000000
O    -2.018000000    -1.541000000     4.011000000
H    -0.580000000    -1.136000000     2.631000000
C    -0.899000000     1.730000000     4.190000000
C    -2.231000000     1.304000000     4.869000000
H    -2.776000000     2.174000000     5.241000000
H    -2.054000000     0.699000000     5.760000000
C    -3.105000000     0.678000000     3.803000000
C    -3.970000000     1.464000000     2.998000000
H    -3.887000000     2.548000000     3.016000000
C    -2.960000000    -0.692000000     3.468000000
C    -3.629000000    -1.231000000     2.438000000
H    -3.368000000    -2.232000000     2.104000000
C    -4.533000000    -0.501000000     1.696000000
O    -5.103000000    -1.108000000     0.566000000
C    -4.175000000    -1.115000000    -0.610000000
C    -4.100000000    -2.472000000    -1.349000000
C    -3.920000000    -3.680000000    -0.666000000
H    -4.128000000    -3.750000000     0.399000000
C    -3.974000000    -2.449000000    -2.723000000
H    -4.051000000    -1.589000000    -3.383000000
O    -4.657000000    -0.045000000    -1.493000000
H    -3.173000000    -0.810000000    -0.274000000
C    -4.720000000     0.837000000     1.958000000
C    -5.466000000     1.764000000     0.963000000
H    -5.807000000     2.637000000     1.523000000
H    -6.375000000     1.205000000     0.733000000
C    -4.566000000     2.140000000    -0.207000000
C    -4.274000000     1.283000000    -1.277000000
C    -3.554000000     1.731000000    -2.364000000
H    -3.462000000     1.076000000    -3.227000000
C    -2.803000000     2.889000000    -2.245000000
O    -1.863000000     3.140000000    -3.231000000
C    -0.425000000     3.066000000    -2.844000000
H    -0.378000000     2.635000000    -1.833000000
C     0.295000000     2.255000000    -3.869000000
C     1.501000000     2.601000000    -4.398000000
H     1.900000000     3.603000000    -4.257000000
C    -0.130000000     0.909000000    -4.069000000
H    -1.009000000     0.580000000    -3.521000000
C     0.745000000    -0.023000000    -4.637000000
O     0.387000000    -1.319000000    -4.872000000
C     2.050000000     0.360000000    -5.126000000
H     2.708000000    -0.371000000    -5.588000000
C     2.320000000     1.697000000    -4.978000000
O     3.527000000     2.194000000    -5.442000000
C     4.362000000     2.829000000    -4.661000000
C     5.054000000     2.159000000    -3.635000000
H     4.790000000     1.143000000    -3.351000000
C     4.798000000     4.084000000    -5.091000000
H     4.275000000     4.589000000    -5.899000000
C     5.837000000     4.710000000    -4.412000000
H     6.043000000     5.746000000    -4.668000000
C     6.460000000     4.105000000    -3.297000000
H     7.340000000     4.520000000    -2.813000000
C     6.103000000     2.798000000    -2.906000000
O     6.719000000     2.210000000    -1.892000000
C     6.033000000     1.736000000    -0.802000000
C     6.362000000     0.541000000    -0.188000000
H     7.088000000    -0.182000000    -0.553000000
C     5.630000000     0.082000000     0.915000000
O     5.938000000    -1.213000000     1.442000000
C     5.504000000    -1.659000000     2.688000000
C     4.793000000    -2.845000000     2.830000000
H     4.656000000    -3.455000000     1.941000000
C     5.893000000    -0.979000000     3.847000000
H     6.601000000    -0.160000000     3.752000000
C     5.384000000    -1.342000000     5.114000000
H     5.637000000    -0.766000000     6.000000000
C     4.519000000    -2.412000000     5.209000000
H     4.134000000    -2.702000000     6.184000000
C     4.267000000    -3.162000000     4.089000000
O     3.458000000    -4.269000000     4.215000000
C     2.096000000    -4.089000000     3.992000000
C     1.334000000    -5.194000000     3.509000000
H     1.727000000    -6.203000000     3.600000000
C     0.007000000    -5.057000000     3.201000000
O    -0.668000000    -6.265000000     3.002000000
C    -1.920000000    -6.390000000     2.589000000
C    -2.185000000    -6.112000000     1.268000000
H    -1.462000000    -5.795000000     0.521000000
C    -2.973000000    -6.922000000     3.392000000
H    -2.932000000    -7.302000000     4.410000000
C    -4.221000000    -7.071000000     2.782000000
H    -5.048000000    -7.448000000     3.378000000
C    -4.496000000    -6.788000000     1.486000000
H    -5.460000000    -7.040000000     1.052000000
C    -3.479000000    -6.287000000     0.667000000
O    -3.721000000    -6.103000000    -0.647000000
C    -3.699000000    -4.897000000    -1.321000000
C    -3.660000000    -4.844000000    -2.711000000
H    -3.430000000    -5.765000000    -3.240000000
C    -3.792000000    -3.659000000    -3.373000000
O    -3.686000000    -3.672000000    -4.772000000
C    -2.774000000    -2.932000000    -5.480000000
C    -2.977000000    -2.722000000    -6.870000000
H    -3.825000000    -3.205000000    -7.348000000
C    -1.983000000    -2.023000000    -7.535000000
H    -2.128000000    -1.965000000    -8.611000000
C    -0.907000000    -1.480000000    -6.863000000
H    -0.089000000    -0.983000000    -7.379000000
C    -0.753000000    -1.625000000    -5.482000000
C    -1.647000000    -2.476000000    -4.821000000
H    -1.445000000    -2.550000000    -3.756000000
O     3.420000000    -8.017000000    -0.500000000
H     3.159000000    -7.166000000    -0.149000000
H     2.657000000    -8.578000000    -0.362000000
O     5.533000000    -6.047000000     1.452000000
H     5.582000000    -6.577000000     2.247000000
H     4.601000000    -5.854000000     1.349000000
O    -1.830000000    -9.573000000    -0.188000000
H    -1.634000000   -10.491000000    -0.373000000
H    -2.445000000    -9.603000000     0.546000000
O     4.637000000   -10.719000000     2.193000000
H     3.945000000   -10.068000000     2.078000000
H     5.407000000   -10.208000000     2.441000000
O     4.721000000    -6.762000000    -2.614000000
H     4.397000000    -7.229000000    -3.384000000
H     4.363000000    -7.247000000    -1.871000000
O     6.909000000    -7.711000000    -0.893000000
H     6.073000000    -7.298000000    -1.108000000
H     6.890000000    -7.809000000     0.059000000
O     6.662000000    -2.482000000    -0.994000000
H     5.932000000    -3.059000000    -1.219000000
H     6.583000000    -2.354000000    -0.048000000
O     4.486000000    -4.423000000    -1.256000000
H     4.587000000    -5.093000000    -1.931000000
H     4.024000000    -4.868000000    -0.545000000
O     2.204000000    -3.270000000    -2.799000000
H     3.148000000    -3.176000000    -2.673000000
H     1.816000000    -2.808000000    -2.057000000
O     8.124000000    -3.875000000     1.412000000
H     8.311000000    -4.634000000     1.964000000
H     7.241000000    -4.033000000     1.077000000
O     1.187000000    -5.789000000    -3.314000000
H     0.906000000    -6.116000000    -2.459000000
H     1.586000000    -4.940000000    -3.126000000
O     2.171000000    -3.478000000    -5.601000000
H     1.758000000    -2.930000000    -4.933000000
H     2.555000000    -4.204000000    -5.111000000
O     3.871000000    -8.432000000    -4.764000000
H     2.996000000    -8.729000000    -5.012000000
H     4.212000000    -9.131000000    -4.206000000
O     2.519000000    -8.730000000     2.662000000
H     2.195000000    -8.038000000     3.239000000
H     1.854000000    -8.800000000     1.976000000
O    -1.389000000    -8.680000000    -4.876000000
H    -1.625000000    -8.359000000    -4.005000000
H    -2.215000000    -8.991000000    -5.248000000
O     0.801000000    -8.790000000     0.498000000
H    -0.109000000    -9.084000000     0.532000000
H     0.795000000    -8.062000000    -0.124000000
O    -1.676000000    -7.789000000    -2.449000000
H    -1.211000000    -7.187000000    -1.867000000
H    -2.014000000    -8.470000000    -1.869000000
O     4.426000000   -10.080000000    -2.415000000
H     4.144000000    -9.503000000    -1.705000000
H     3.961000000   -10.901000000    -2.254000000
O     0.427000000    -6.960000000    -5.921000000
H     0.459000000    -6.526000000    -5.068000000
H     0.010000000    -7.803000000    -5.745000000
