201
-1252.46723
C     5.247000000     0.168000000     0.912000000
H     5.292000000    -0.486000000     1.781000000
C     4.368000000     1.207000000     0.868000000
C     4.262000000     1.895000000    -0.368000000
H     3.491000000     2.660000000    -0.355000000
C     3.402000000     1.610000000     2.004000000
O     3.719000000     0.962000000     3.239000000
H     2.423000000     1.224000000     1.683000000
O     3.343000000     3.026000000     2.273000000
C     2.069000000     3.517000000     2.530000000
C     1.433000000     4.017000000     1.407000000
H     2.038000000     4.204000000     0.524000000
C     0.128000000     4.363000000     1.428000000
O    -0.314000000     4.977000000     0.284000000
C    -0.635000000     4.152000000     2.625000000
C    -2.098000000     4.564000000     2.625000000
H    -2.548000000     4.642000000     3.617000000
C    -2.859000000     3.520000000     1.873000000
C    -3.467000000     2.439000000     2.646000000
H    -3.351000000     2.506000000     3.725000000
H    -2.141000000     5.544000000     2.147000000
C    -0.056000000     3.479000000     3.648000000
H    -0.635000000     3.186000000     4.520000000
C     1.317000000     3.203000000     3.676000000
C     1.826000000     2.381000000     4.826000000
H     1.165000000     2.530000000     5.682000000
H     2.785000000     2.765000000     5.178000000
C     1.683000000     0.909000000     4.566000000
C     0.515000000     0.248000000     4.977000000
H    -0.304000000     0.872000000     5.325000000
C     2.659000000     0.252000000     3.831000000
C     2.467000000    -1.082000000     3.515000000
H     3.146000000    -1.573000000     2.823000000
C     1.397000000    -1.808000000     4.117000000
O     1.328000000    -3.143000000     3.699000000
C     0.438000000    -3.390000000     2.599000000
C     1.015000000    -4.390000000     1.632000000
C     0.178000000    -5.416000000     1.195000000
H    -0.846000000    -5.541000000     1.538000000
C     2.293000000    -4.299000000     1.051000000
H     2.934000000    -3.453000000     1.283000000
O    -0.780000000    -3.828000000     3.087000000
H     0.219000000    -2.387000000     2.202000000
C     0.399000000    -1.180000000     4.833000000
C    -0.865000000    -1.812000000     5.251000000
H    -1.294000000    -1.393000000     6.164000000
H    -0.638000000    -2.843000000     5.529000000
C    -1.864000000    -1.869000000     4.096000000
C    -2.826000000    -0.848000000     4.037000000
H    -2.870000000    -0.117000000     4.842000000
C    -1.857000000    -2.910000000     3.095000000
C    -2.703000000    -2.904000000     2.034000000
H    -2.623000000    -3.602000000     1.204000000
C    -3.565000000    -1.869000000     1.931000000
O    -4.408000000    -1.761000000     0.868000000
C    -3.937000000    -0.822000000    -0.146000000
C    -3.716000000    -1.377000000    -1.527000000
C    -3.573000000    -2.782000000    -1.651000000
H    -3.727000000    -3.410000000    -0.778000000
C    -3.393000000    -0.608000000    -2.620000000
H    -3.251000000     0.465000000    -2.512000000
O    -4.762000000     0.360000000    -0.140000000
H    -2.919000000    -0.547000000     0.168000000
C    -3.689000000    -0.855000000     2.942000000
C    -4.675000000     0.329000000     2.906000000
H    -4.749000000     0.704000000     3.929000000
H    -5.699000000     0.064000000     2.632000000
C    -4.154000000     1.465000000     2.004000000
C    -4.280000000     1.462000000     0.599000000
C    -3.862000000     2.546000000    -0.097000000
H    -4.067000000     2.657000000    -1.158000000
C    -3.116000000     3.549000000     0.498000000
O    -2.442000000     4.500000000    -0.232000000
C    -1.197000000     4.192000000    -0.568000000
H    -0.999000000     3.116000000    -0.445000000
C    -0.936000000     4.506000000    -2.076000000
C     0.337000000     4.846000000    -2.531000000
H     1.201000000     4.873000000    -1.872000000
C    -1.940000000     4.361000000    -2.973000000
H    -2.964000000     4.123000000    -2.698000000
C    -1.709000000     4.540000000    -4.313000000
O    -2.752000000     4.386000000    -5.177000000
C    -0.483000000     4.910000000    -4.849000000
H    -0.294000000     5.250000000    -5.864000000
C     0.517000000     5.165000000    -3.909000000
O     1.812000000     5.546000000    -4.318000000
C     2.964000000     5.285000000    -3.664000000
C     3.406000000     3.945000000    -3.521000000
H     2.901000000     3.136000000    -4.043000000
C     3.637000000     6.305000000    -2.998000000
H     3.306000000     7.333000000    -3.134000000
C     4.737000000     5.963000000    -2.207000000
H     5.249000000     6.763000000    -1.678000000
C     5.165000000     4.640000000    -2.040000000
H     5.907000000     4.418000000    -1.276000000
C     4.500000000     3.648000000    -2.721000000
O     4.959000000     2.369000000    -2.645000000
C     5.118000000     1.665000000    -1.439000000
C     6.053000000     0.649000000    -1.326000000
H     6.722000000     0.450000000    -2.160000000
C     6.036000000    -0.178000000    -0.159000000
O     6.867000000    -1.361000000    -0.018000000
C     6.392000000    -2.625000000     0.312000000
C     5.361000000    -3.186000000    -0.400000000
H     4.875000000    -2.750000000    -1.269000000
C     7.126000000    -3.285000000     1.249000000
H     8.040000000    -2.895000000     1.687000000
C     6.725000000    -4.508000000     1.720000000
H     7.265000000    -5.017000000     2.514000000
C     5.605000000    -5.166000000     1.135000000
H     5.231000000    -6.093000000     1.562000000
C     4.976000000    -4.465000000     0.045000000
O     3.904000000    -5.067000000    -0.542000000
C     2.737000000    -5.186000000     0.098000000
C     1.939000000    -6.265000000    -0.248000000
H     2.270000000    -7.041000000    -0.935000000
C     0.668000000    -6.300000000     0.260000000
O    -0.243000000    -7.241000000    -0.262000000
C    -1.540000000    -6.890000000    -0.633000000
C    -1.754000000    -5.846000000    -1.592000000
H    -0.995000000    -5.082000000    -1.742000000
C    -2.618000000    -7.800000000    -0.381000000
H    -2.480000000    -8.607000000     0.334000000
C    -3.869000000    -7.544000000    -0.894000000
H    -4.658000000    -8.271000000    -0.722000000
C    -4.050000000    -6.483000000    -1.778000000
H    -4.988000000    -6.314000000    -2.300000000
C    -3.035000000    -5.614000000    -2.059000000
O    -3.254000000    -4.675000000    -3.023000000
C    -3.295000000    -3.306000000    -2.893000000
C    -3.091000000    -2.518000000    -4.005000000
H    -2.803000000    -2.893000000    -4.983000000
C    -3.194000000    -1.168000000    -3.899000000
O    -3.043000000    -0.352000000    -4.994000000
C    -3.740000000     0.808000000    -5.106000000
C    -5.068000000     0.942000000    -5.585000000
H    -5.691000000     0.091000000    -5.853000000
C    -5.616000000     2.148000000    -6.044000000
H    -6.640000000     2.146000000    -6.409000000
C    -4.858000000     3.314000000    -5.820000000
H    -5.314000000     4.271000000    -6.053000000
C    -3.582000000     3.232000000    -5.359000000
C    -3.092000000     1.992000000    -4.982000000
H    -2.082000000     1.843000000    -4.609000000
O     0.236000000    -3.347000000    -4.078000000
H     0.143000000    -2.459000000    -3.734000000
H     0.574000000    -3.227000000    -4.965000000
O     3.902000000     3.051000000    -6.791000000
H     3.778000000     2.147000000    -6.501000000
H     4.712000000     3.329000000    -6.364000000
O     7.462000000     1.039000000    -4.478000000
H     8.017000000     1.063000000    -5.258000000
H     8.076000000     1.095000000    -3.746000000
O     6.254000000     3.649000000    -5.516000000
H     6.250000000     3.275000000    -4.635000000
H     6.455000000     4.575000000    -5.382000000
O     3.734000000    -2.186000000    -9.247000000
H     4.247000000    -2.090000000   -10.049000000
H     2.982000000    -1.607000000    -9.372000000
O     4.369000000    -4.401000000    -7.623000000
H     4.377000000    -3.988000000    -8.486000000
H     3.929000000    -3.768000000    -7.057000000
O     1.177000000    -1.123000000    -9.194000000
H     0.426000000    -1.412000000    -8.675000000
H     1.095000000    -1.599000000   -10.020000000
O     5.824000000    -1.282000000    -4.901000000
H     4.982000000    -1.196000000    -4.455000000
H     6.259000000    -0.442000000    -4.756000000
O    -0.618000000     0.804000000    -6.682000000
H     0.042000000     1.320000000    -7.144000000
H    -0.129000000     0.347000000    -5.997000000
O     0.118000000    -6.088000000    -4.306000000
H     0.187000000    -6.041000000    -5.260000000
H    -0.050000000    -5.186000000    -4.033000000
O     3.748000000    -3.688000000    -3.713000000
H     2.939000000    -4.011000000    -4.110000000
H     3.699000000    -2.737000000    -3.808000000
O     1.395000000     1.733000000    -8.239000000
H     2.086000000     2.237000000    -8.669000000
H     1.479000000     0.852000000    -8.604000000
O     3.454000000     0.408000000    -6.324000000
H     2.527000000     0.647000000    -6.311000000
H     3.546000000    -0.231000000    -5.618000000
O     5.899000000    -1.017000000    -7.741000000
H     5.164000000    -1.343000000    -8.259000000
H     5.574000000    -1.009000000    -6.841000000
O     0.787000000    -5.284000000    -6.819000000
H     1.059000000    -4.386000000    -7.005000000
H     0.719000000    -5.698000000    -7.680000000
O    -2.872000000     0.053000000    -8.085000000
H    -3.633000000     0.611000000    -8.245000000
H    -2.347000000     0.539000000    -7.450000000
O    -0.657000000    -2.388000000    -7.809000000
H    -0.949000000    -3.093000000    -8.387000000
H    -1.464000000    -1.951000000    -7.537000000
O     1.933000000    -2.886000000    -6.376000000
H     1.706000000    -2.437000000    -7.190000000
H     1.795000000    -2.229000000    -5.693000000
O     6.592000000    -3.820000000    -4.319000000
H     6.635000000    -2.884000000    -4.517000000
H     5.716000000    -3.948000000    -3.956000000
