201
-1227.03125
C     4.392000000    -1.549000000     2.863000000
H     3.536000000    -2.214000000     2.943000000
C     4.044000000    -0.212000000     3.132000000
C     4.967000000     0.803000000     2.789000000
H     4.698000000     1.842000000     2.957000000
C     2.626000000     0.149000000     3.505000000
O     2.094000000    -0.799000000     4.480000000
H     1.914000000     0.296000000     2.681000000
O     2.464000000     1.424000000     4.118000000
C     1.442000000     2.251000000     3.821000000
C     1.648000000     3.253000000     2.888000000
H     2.602000000     3.389000000     2.386000000
C     0.502000000     3.945000000     2.433000000
O     0.649000000     4.631000000     1.306000000
C    -0.763000000     3.750000000     2.976000000
C    -1.974000000     4.614000000     2.506000000
H    -2.573000000     4.868000000     3.382000000
C    -2.775000000     3.895000000     1.370000000
C    -3.781000000     2.998000000     1.630000000
H    -4.140000000     2.777000000     2.632000000
H    -1.612000000     5.595000000     2.190000000
C    -0.895000000     2.850000000     4.069000000
H    -1.843000000     2.807000000     4.600000000
C     0.188000000     2.071000000     4.430000000
C    -0.068000000     0.988000000     5.435000000
H    -0.948000000     1.184000000     6.051000000
H     0.769000000     0.994000000     6.137000000
C    -0.272000000    -0.313000000     4.740000000
C    -1.649000000    -0.760000000     4.591000000
H    -2.400000000    -0.135000000     5.067000000
C     0.760000000    -1.149000000     4.383000000
C     0.435000000    -2.369000000     3.799000000
H     1.218000000    -2.895000000     3.259000000
C    -0.875000000    -2.731000000     3.468000000
O    -1.060000000    -3.790000000     2.651000000
C    -1.413000000    -3.674000000     1.297000000
C    -0.569000000    -4.511000000     0.363000000
C    -0.953000000    -4.704000000    -0.970000000
H    -1.929000000    -4.359000000    -1.301000000
C     0.620000000    -5.133000000     0.817000000
H     0.847000000    -5.116000000     1.880000000
O    -2.782000000    -3.785000000     0.951000000
H    -1.080000000    -2.650000000     1.072000000
C    -1.928000000    -1.965000000     3.899000000
C    -3.367000000    -2.333000000     3.647000000
H    -4.059000000    -1.991000000     4.419000000
H    -3.529000000    -3.409000000     3.551000000
C    -3.862000000    -1.937000000     2.280000000
C    -4.360000000    -0.620000000     2.169000000
H    -4.579000000     0.026000000     3.015000000
C    -3.578000000    -2.631000000     1.058000000
C    -4.018000000    -2.177000000    -0.156000000
H    -4.056000000    -2.789000000    -1.053000000
C    -4.625000000    -0.883000000    -0.222000000
O    -4.939000000    -0.423000000    -1.463000000
C    -3.864000000     0.416000000    -1.992000000
C    -3.587000000     0.101000000    -3.410000000
C    -3.613000000    -1.238000000    -3.819000000
H    -3.666000000    -1.969000000    -3.016000000
C    -3.224000000     1.139000000    -4.334000000
H    -3.062000000     2.145000000    -3.954000000
O    -4.364000000     1.791000000    -1.854000000
H    -2.989000000     0.294000000    -1.337000000
C    -4.794000000    -0.169000000     0.981000000
C    -5.361000000     1.196000000     0.881000000
H    -5.762000000     1.364000000     1.883000000
H    -6.225000000     1.236000000     0.215000000
C    -4.307000000     2.218000000     0.574000000
C    -3.837000000     2.472000000    -0.776000000
C    -2.836000000     3.307000000    -1.010000000
H    -2.311000000     3.314000000    -1.962000000
C    -2.257000000     3.963000000     0.080000000
O    -1.153000000     4.683000000    -0.258000000
C     0.122000000     4.128000000     0.066000000
H    -0.094000000     3.057000000     0.187000000
C     1.055000000     4.205000000    -1.110000000
C     2.436000000     3.991000000    -0.864000000
H     2.709000000     3.750000000     0.161000000
C     0.613000000     4.286000000    -2.413000000
H    -0.422000000     4.564000000    -2.591000000
C     1.510000000     4.020000000    -3.454000000
O     1.188000000     4.008000000    -4.757000000
C     2.842000000     3.838000000    -3.165000000
H     3.606000000     3.752000000    -3.934000000
C     3.391000000     3.890000000    -1.879000000
O     4.713000000     3.660000000    -1.674000000
C     5.420000000     3.727000000    -0.525000000
C     5.870000000     2.566000000     0.145000000
H     5.609000000     1.576000000    -0.220000000
C     5.613000000     5.010000000     0.076000000
H     5.242000000     5.943000000    -0.340000000
C     6.306000000     5.055000000     1.299000000
H     6.422000000     6.046000000     1.732000000
C     6.849000000     3.936000000     1.856000000
H     7.347000000     4.098000000     2.809000000
C     6.557000000     2.664000000     1.353000000
O     7.035000000     1.537000000     1.921000000
C     6.283000000     0.512000000     2.388000000
C     6.590000000    -0.844000000     2.131000000
H     7.532000000    -1.067000000     1.637000000
C     5.654000000    -1.880000000     2.408000000
O     5.933000000    -3.089000000     2.004000000
C     5.027000000    -4.187000000     2.231000000
C     4.179000000    -4.670000000     1.222000000
H     4.214000000    -4.033000000     0.342000000
C     5.095000000    -4.874000000     3.446000000
H     5.772000000    -4.557000000     4.234000000
C     4.406000000    -6.094000000     3.585000000
H     4.471000000    -6.706000000     4.481000000
C     3.548000000    -6.444000000     2.562000000
H     2.990000000    -7.374000000     2.637000000
C     3.424000000    -5.837000000     1.393000000
O     2.677000000    -6.341000000     0.372000000
C     1.491000000    -5.723000000    -0.091000000
C     1.120000000    -5.824000000    -1.439000000
H     1.738000000    -6.260000000    -2.220000000
C    -0.101000000    -5.394000000    -1.836000000
O    -0.454000000    -5.463000000    -3.171000000
C    -1.653000000    -5.341000000    -3.713000000
C    -1.939000000    -4.104000000    -4.245000000
H    -1.213000000    -3.297000000    -4.305000000
C    -2.719000000    -6.218000000    -3.440000000
H    -2.453000000    -7.135000000    -2.922000000
C    -3.973000000    -5.993000000    -3.907000000
H    -4.829000000    -6.651000000    -3.780000000
C    -4.228000000    -4.817000000    -4.616000000
H    -5.239000000    -4.612000000    -4.958000000
C    -3.225000000    -3.871000000    -4.789000000
O    -3.384000000    -2.836000000    -5.721000000
C    -3.470000000    -1.516000000    -5.187000000
C    -3.263000000    -0.510000000    -6.122000000
H    -3.274000000    -0.730000000    -7.187000000
C    -3.137000000     0.857000000    -5.688000000
O    -2.832000000     1.913000000    -6.593000000
C    -2.053000000     3.011000000    -6.242000000
C    -2.594000000     4.276000000    -6.529000000
H    -3.591000000     4.345000000    -6.956000000
C    -1.902000000     5.469000000    -6.228000000
H    -2.327000000     6.447000000    -6.440000000
C    -0.671000000     5.349000000    -5.617000000
H    -0.066000000     6.224000000    -5.396000000
C    -0.119000000     4.100000000    -5.282000000
C    -0.830000000     2.940000000    -5.604000000
H    -0.481000000     1.945000000    -5.340000000
O     4.901000000    -3.389000000    -4.496000000
H     4.145000000    -2.809000000    -4.398000000
H     5.445000000    -3.203000000    -3.731000000
O     5.794000000    -2.656000000    -8.684000000
H     5.067000000    -2.209000000    -8.251000000
H     5.856000000    -3.501000000    -8.238000000
O     6.005000000     3.982000000    -4.737000000
H     6.821000000     3.864000000    -4.252000000
H     5.508000000     3.182000000    -4.569000000
O     6.696000000    -5.974000000    -1.855000000
H     5.866000000    -6.416000000    -1.674000000
H     6.511000000    -5.047000000    -1.708000000
O     7.363000000    -4.039000000    -5.766000000
H     6.670000000    -3.637000000    -5.242000000
H     6.907000000    -4.671000000    -6.322000000
O    -0.385000000    -3.933000000    -7.924000000
H     0.202000000    -3.617000000    -8.610000000
H    -0.143000000    -3.427000000    -7.148000000
O     8.850000000    -0.169000000    -2.625000000
H     7.976000000    -0.511000000    -2.816000000
H     9.016000000     0.466000000    -3.321000000
O     2.542000000    -7.335000000    -4.749000000
H     1.794000000    -7.099000000    -5.299000000
H     3.191000000    -6.653000000    -4.923000000
O     5.175000000     1.141000000    -4.970000000
H     4.908000000     0.773000000    -4.128000000
H     4.370000000     1.503000000    -5.340000000
O     4.221000000    -7.546000000    -2.187000000
H     3.736000000    -8.079000000    -1.557000000
H     3.581000000    -7.337000000    -2.868000000
O     1.210000000    -3.581000000    -5.469000000
H     1.825000000    -3.100000000    -4.915000000
H     0.627000000    -4.023000000    -4.853000000
O     3.285000000    -4.442000000    -6.885000000
H     2.436000000    -4.253000000    -6.485000000
H     3.915000000    -3.965000000    -6.346000000
O     3.104000000     2.206000000    -6.503000000
H     3.689000000     2.433000000    -7.226000000
H     2.368000000     2.812000000    -6.591000000
O     6.685000000    -3.383000000    -0.990000000
H     6.451000000    -2.797000000    -1.709000000
H     7.052000000    -2.806000000    -0.320000000
O     2.831000000    -1.240000000    -9.056000000
H     2.859000000    -1.402000000    -8.113000000
H     2.716000000    -0.293000000    -9.133000000
O    -0.325000000     0.161000000    -7.423000000
H    -0.557000000     0.084000000    -6.498000000
H     0.632000000     0.143000000    -7.433000000
O     2.119000000    -0.638000000    -6.284000000
H     2.373000000    -1.079000000    -5.473000000
H     2.763000000     0.063000000    -6.387000000
O     7.170000000    -0.684000000    -5.522000000
H     6.592000000     0.060000000    -5.354000000
H     7.389000000    -0.613000000    -6.451000000
O     6.323000000    -1.568000000    -3.023000000
H     5.453000000    -1.172000000    -3.058000000
H     6.633000000    -1.547000000    -3.929000000
