201
-1250.33664
C     3.770000000    -1.387000000     2.334000000
H     3.088000000    -2.197000000     2.579000000
C     3.487000000    -0.092000000     2.872000000
C     4.407000000     0.941000000     2.678000000
H     4.197000000     1.955000000     3.010000000
C     2.169000000     0.260000000     3.573000000
O     1.849000000    -0.614000000     4.606000000
H     1.367000000     0.109000000     2.835000000
O     2.162000000     1.594000000     4.131000000
C     1.081000000     2.380000000     3.878000000
C     1.291000000     3.355000000     2.941000000
H     2.299000000     3.576000000     2.602000000
C     0.179000000     4.039000000     2.463000000
O     0.314000000     4.895000000     1.416000000
C    -1.103000000     3.678000000     2.882000000
C    -2.268000000     4.535000000     2.315000000
H    -2.981000000     4.541000000     3.142000000
C    -2.850000000     3.821000000     1.097000000
C    -3.869000000     2.883000000     1.235000000
H    -4.000000000     2.642000000     2.287000000
H    -2.100000000     5.605000000     2.173000000
C    -1.294000000     2.794000000     3.963000000
H    -2.283000000     2.653000000     4.390000000
C    -0.168000000     2.132000000     4.455000000
C    -0.311000000     1.039000000     5.541000000
H    -1.149000000     1.334000000     6.175000000
H     0.604000000     1.086000000     6.137000000
C    -0.542000000    -0.301000000     4.951000000
C    -1.858000000    -0.700000000     4.703000000
H    -2.699000000    -0.046000000     4.919000000
C     0.533000000    -1.092000000     4.591000000
C     0.253000000    -2.346000000     4.063000000
H     1.121000000    -2.869000000     3.669000000
C    -1.039000000    -2.702000000     3.706000000
O    -1.137000000    -3.807000000     2.906000000
C    -1.341000000    -3.485000000     1.519000000
C    -0.494000000    -4.366000000     0.548000000
C    -1.034000000    -4.648000000    -0.768000000
H    -2.055000000    -4.403000000    -1.050000000
C     0.582000000    -5.033000000     0.946000000
H     0.836000000    -4.957000000     2.000000000
O    -2.766000000    -3.674000000     1.263000000
H    -0.974000000    -2.451000000     1.436000000
C    -2.117000000    -1.911000000     4.034000000
C    -3.535000000    -2.186000000     3.596000000
H    -4.194000000    -1.687000000     4.309000000
H    -3.709000000    -3.261000000     3.679000000
C    -3.811000000    -1.712000000     2.199000000
C    -4.456000000    -0.493000000     1.949000000
H    -4.732000000     0.162000000     2.772000000
C    -3.492000000    -2.531000000     1.080000000
C    -3.863000000    -2.164000000    -0.194000000
H    -3.440000000    -2.732000000    -1.019000000
C    -4.427000000    -0.980000000    -0.389000000
O    -4.644000000    -0.620000000    -1.665000000
C    -3.760000000     0.345000000    -2.267000000
C    -3.445000000    -0.020000000    -3.628000000
C    -3.584000000    -1.324000000    -4.087000000
H    -4.044000000    -2.117000000    -3.503000000
C    -2.850000000     0.878000000    -4.448000000
H    -2.535000000     1.812000000    -3.990000000
O    -4.280000000     1.704000000    -2.199000000
H    -2.781000000     0.363000000    -1.765000000
C    -4.780000000    -0.133000000     0.649000000
C    -5.524000000     1.181000000     0.281000000
H    -6.093000000     1.477000000     1.165000000
H    -6.229000000     1.046000000    -0.542000000
C    -4.540000000     2.292000000     0.123000000
C    -3.961000000     2.544000000    -1.171000000
C    -2.995000000     3.563000000    -1.323000000
H    -2.594000000     3.700000000    -2.324000000
C    -2.455000000     4.198000000    -0.199000000
O    -1.257000000     4.908000000    -0.377000000
C    -0.008000000     4.392000000     0.155000000
H    -0.224000000     3.333000000     0.362000000
C     1.215000000     4.375000000    -0.802000000
C     2.506000000     4.651000000    -0.499000000
H     2.786000000     5.009000000     0.488000000
C     0.969000000     3.850000000    -2.046000000
H    -0.028000000     3.537000000    -2.346000000
C     2.013000000     3.659000000    -2.991000000
O     1.815000000     3.028000000    -4.213000000
C     3.327000000     3.960000000    -2.612000000
H     4.099000000     4.000000000    -3.376000000
C     3.596000000     4.483000000    -1.395000000
O     4.771000000     5.037000000    -1.050000000
C     5.533000000     4.627000000     0.011000000
C     5.576000000     3.274000000     0.411000000
H     4.999000000     2.493000000    -0.078000000
C     6.252000000     5.604000000     0.672000000
H     6.139000000     6.637000000     0.351000000
C     7.009000000     5.233000000     1.818000000
H     7.546000000     5.968000000     2.411000000
C     7.134000000     3.927000000     2.188000000
H     7.755000000     3.679000000     3.045000000
C     6.339000000     2.979000000     1.557000000
O     6.540000000     1.649000000     1.826000000
C     5.561000000     0.709000000     2.030000000
C     5.808000000    -0.546000000     1.450000000
H     6.744000000    -0.696000000     0.918000000
C     4.935000000    -1.602000000     1.626000000
O     5.403000000    -2.823000000     1.231000000
C     4.769000000    -4.003000000     1.768000000
C     3.832000000    -4.680000000     0.966000000
H     3.567000000    -4.209000000     0.022000000
C     5.116000000    -4.589000000     2.981000000
H     5.847000000    -4.083000000     3.607000000
C     4.645000000    -5.836000000     3.383000000
H     5.042000000    -6.243000000     4.309000000
C     3.676000000    -6.509000000     2.583000000
H     3.332000000    -7.504000000     2.852000000
C     3.306000000    -5.947000000     1.371000000
O     2.431000000    -6.593000000     0.576000000
C     1.325000000    -5.847000000     0.056000000
C     0.859000000    -6.061000000    -1.258000000
H     1.475000000    -6.616000000    -1.961000000
C    -0.365000000    -5.533000000    -1.639000000
O    -0.829000000    -5.957000000    -2.862000000
C    -2.013000000    -5.533000000    -3.431000000
C    -2.095000000    -4.370000000    -4.217000000
H    -1.232000000    -3.713000000    -4.295000000
C    -3.119000000    -6.416000000    -3.394000000
H    -3.112000000    -7.326000000    -2.799000000
C    -4.333000000    -6.084000000    -3.944000000
H    -5.173000000    -6.771000000    -3.885000000
C    -4.367000000    -4.943000000    -4.762000000
H    -5.292000000    -4.740000000    -5.296000000
C    -3.245000000    -4.164000000    -4.938000000
O    -3.321000000    -3.025000000    -5.774000000
C    -3.265000000    -1.671000000    -5.359000000
C    -2.721000000    -0.740000000    -6.182000000
H    -2.527000000    -0.989000000    -7.223000000
C    -2.543000000     0.555000000    -5.758000000
O    -2.027000000     1.499000000    -6.624000000
C    -1.223000000     2.477000000    -6.174000000
C    -1.580000000     3.768000000    -6.509000000
H    -2.400000000     3.966000000    -7.195000000
C    -0.802000000     4.776000000    -5.987000000
H    -1.021000000     5.817000000    -6.206000000
C     0.273000000     4.531000000    -5.134000000
H     0.818000000     5.371000000    -4.712000000
C     0.676000000     3.231000000    -4.941000000
C    -0.010000000     2.152000000    -5.524000000
H     0.376000000     1.141000000    -5.425000000
O     3.695000000     3.908000000    -7.423000000
H     4.317000000     4.335000000    -8.013000000
H     3.647000000     4.489000000    -6.664000000
O     5.913000000    -1.367000000    -5.316000000
H     5.831000000    -1.951000000    -6.070000000
H     5.010000000    -1.163000000    -5.072000000
O     6.176000000    -1.957000000    -2.483000000
H     5.586000000    -1.227000000    -2.295000000
H     6.068000000    -2.117000000    -3.420000000
O     8.224000000    -0.343000000    -4.504000000
H     8.824000000    -0.689000000    -5.165000000
H     7.369000000    -0.341000000    -4.935000000
O     9.230000000    -1.795000000    -2.324000000
H     8.544000000    -1.695000000    -2.984000000
H     9.902000000    -2.324000000    -2.753000000
O    -0.770000000    -2.750000000    -7.471000000
H    -0.010000000    -2.716000000    -8.051000000
H    -0.419000000    -2.549000000    -6.604000000
O     1.380000000    -4.383000000    -5.308000000
H     1.724000000    -4.700000000    -4.473000000
H     1.514000000    -3.435000000    -5.278000000
O     2.280000000    -1.175000000    -8.090000000
H     2.934000000    -0.476000000    -8.065000000
H     2.210000000    -1.405000000    -9.017000000
O     3.378000000     1.216000000    -6.078000000
H     2.795000000     1.875000000    -5.702000000
H     3.314000000     0.470000000    -5.482000000
O     3.111000000    -3.124000000    -2.895000000
H     3.168000000    -2.627000000    -2.079000000
H     3.073000000    -2.456000000    -3.580000000
O     6.818000000    -4.304000000    -1.350000000
H     6.788000000    -3.412000000    -1.696000000
H     7.107000000    -4.200000000    -0.443000000
O     4.718000000    -5.353000000    -2.982000000
H     4.091000000    -4.633000000    -2.918000000
H     5.455000000    -5.079000000    -2.437000000
O     5.645000000    -2.305000000    -7.895000000
H     5.975000000    -1.448000000    -8.167000000
H     5.414000000    -2.744000000    -8.713000000
O     7.443000000     3.618000000    -3.188000000
H     7.212000000     3.173000000    -2.373000000
H     6.778000000     3.331000000    -3.814000000
O     6.647000000     1.303000000    -1.867000000
H     5.840000000     0.857000000    -2.123000000
H     7.317000000     0.619000000    -1.895000000
O     4.322000000     1.136000000    -8.855000000
H     3.950000000     1.601000000    -8.106000000
H     5.014000000     1.714000000    -9.177000000
O     1.087000000    -1.645000000    -5.629000000
H     1.645000000    -1.155000000    -5.025000000
H     1.315000000    -1.305000000    -6.494000000
O     7.688000000     2.723000000    -6.969000000
H     7.464000000     3.503000000    -7.477000000
H     6.978000000     2.641000000    -6.332000000
O     5.673000000     2.173000000    -5.144000000
H     5.651000000     1.626000000    -4.359000000
H     5.018000000     1.785000000    -5.725000000
