201
-1225.59340
C     3.781000000    -0.929000000     1.469000000
H     3.055000000    -1.736000000     1.410000000
C     3.802000000     0.237000000     2.261000000
C     4.827000000     1.178000000     2.111000000
H     4.817000000     2.100000000     2.686000000
C     2.615000000     0.394000000     3.158000000
O     2.221000000    -0.778000000     3.986000000
H     1.854000000     0.504000000     2.371000000
O     2.591000000     1.648000000     3.969000000
C     1.484000000     2.444000000     3.967000000
C     1.501000000     3.460000000     3.079000000
H     2.330000000     3.531000000     2.380000000
C     0.360000000     4.113000000     2.643000000
O     0.365000000     4.931000000     1.516000000
C    -0.915000000     3.702000000     3.153000000
C    -2.153000000     4.426000000     2.674000000
H    -2.928000000     4.620000000     3.418000000
C    -2.858000000     3.805000000     1.478000000
C    -3.935000000     2.970000000     1.675000000
H    -4.342000000     2.827000000     2.672000000
H    -1.937000000     5.438000000     2.326000000
C    -0.932000000     2.653000000     4.069000000
H    -1.924000000     2.458000000     4.468000000
C     0.250000000     1.949000000     4.416000000
C     0.215000000     0.886000000     5.403000000
H    -0.552000000     1.052000000     6.163000000
H     1.159000000     0.768000000     5.939000000
C    -0.097000000    -0.385000000     4.646000000
C    -1.447000000    -0.727000000     4.521000000
H    -2.224000000    -0.033000000     4.832000000
C     0.889000000    -1.134000000     4.024000000
C     0.566000000    -2.304000000     3.410000000
H     1.302000000    -2.958000000     2.951000000
C    -0.737000000    -2.734000000     3.384000000
O    -1.033000000    -3.969000000     2.716000000
C    -1.524000000    -3.771000000     1.358000000
C    -0.797000000    -4.737000000     0.449000000
C    -1.348000000    -5.328000000    -0.703000000
H    -2.355000000    -4.975000000    -0.909000000
C     0.544000000    -5.163000000     0.760000000
H     0.973000000    -4.721000000     1.655000000
O    -2.955000000    -3.934000000     1.305000000
H    -1.313000000    -2.752000000     1.002000000
C    -1.797000000    -1.984000000     3.891000000
C    -3.241000000    -2.343000000     3.784000000
H    -3.712000000    -1.736000000     4.559000000
H    -3.399000000    -3.416000000     3.913000000
C    -3.807000000    -1.965000000     2.428000000
C    -4.496000000    -0.722000000     2.381000000
H    -4.609000000    -0.100000000     3.265000000
C    -3.636000000    -2.732000000     1.223000000
C    -4.068000000    -2.258000000     0.039000000
H    -4.047000000    -2.825000000    -0.888000000
C    -4.724000000    -1.037000000     0.009000000
O    -5.020000000    -0.532000000    -1.269000000
C    -3.936000000     0.234000000    -1.801000000
C    -3.535000000    -0.206000000    -3.245000000
C    -3.772000000    -1.519000000    -3.603000000
H    -4.097000000    -2.258000000    -2.875000000
C    -3.001000000     0.691000000    -4.155000000
H    -2.708000000     1.679000000    -3.810000000
O    -4.281000000     1.680000000    -1.712000000
H    -3.049000000     0.112000000    -1.162000000
C    -5.063000000    -0.224000000     1.170000000
C    -5.676000000     1.221000000     1.024000000
H    -5.998000000     1.608000000     1.993000000
H    -6.552000000     1.110000000     0.381000000
C    -4.556000000     2.280000000     0.595000000
C    -3.948000000     2.454000000    -0.656000000
C    -2.902000000     3.337000000    -0.869000000
H    -2.413000000     3.240000000    -1.835000000
C    -2.382000000     4.026000000     0.159000000
O    -1.209000000     4.711000000    -0.099000000
C     0.055000000     4.243000000     0.324000000
H    -0.081000000     3.180000000     0.571000000
C     1.134000000     4.355000000    -0.686000000
C     2.411000000     4.904000000    -0.405000000
H     2.624000000     5.134000000     0.636000000
C     0.930000000     3.863000000    -1.929000000
H    -0.027000000     3.375000000    -2.098000000
C     1.886000000     3.981000000    -2.930000000
O     1.609000000     3.622000000    -4.251000000
C     3.056000000     4.595000000    -2.687000000
H     3.707000000     4.827000000    -3.527000000
C     3.350000000     4.959000000    -1.399000000
O     4.539000000     5.564000000    -1.130000000
C     5.422000000     5.138000000    -0.146000000
C     5.589000000     3.790000000     0.030000000
H     5.047000000     3.053000000    -0.557000000
C     6.166000000     6.072000000     0.490000000
H     6.004000000     7.139000000     0.362000000
C     7.249000000     5.647000000     1.231000000
H     7.991000000     6.250000000     1.749000000
C     7.448000000     4.245000000     1.431000000
H     8.287000000     3.933000000     2.048000000
C     6.638000000     3.290000000     0.788000000
O     6.806000000     1.922000000     0.968000000
C     5.815000000     0.986000000     1.177000000
C     5.923000000    -0.238000000     0.523000000
H     6.847000000    -0.475000000     0.000000000
C     4.930000000    -1.174000000     0.669000000
O     5.088000000    -2.451000000     0.171000000
C     4.715000000    -3.551000000     0.929000000
C     3.686000000    -4.342000000     0.523000000
H     3.070000000    -3.978000000    -0.296000000
C     5.584000000    -3.970000000     1.899000000
H     6.419000000    -3.292000000     2.056000000
C     5.426000000    -5.230000000     2.463000000
H     6.196000000    -5.607000000     3.130000000
C     4.383000000    -6.089000000     2.033000000
H     4.193000000    -7.082000000     2.434000000
C     3.477000000    -5.607000000     1.030000000
O     2.511000000    -6.439000000     0.366000000
C     1.248000000    -6.067000000    -0.026000000
C     0.626000000    -6.576000000    -1.160000000
H     1.129000000    -7.331000000    -1.759000000
C    -0.623000000    -6.184000000    -1.528000000
O    -1.139000000    -6.558000000    -2.700000000
C    -2.346000000    -6.097000000    -3.157000000
C    -2.394000000    -4.932000000    -3.899000000
H    -1.447000000    -4.413000000    -4.028000000
C    -3.520000000    -6.772000000    -2.815000000
H    -3.543000000    -7.760000000    -2.363000000
C    -4.756000000    -6.255000000    -3.344000000
H    -5.674000000    -6.779000000    -3.088000000
C    -4.786000000    -5.141000000    -4.167000000
H    -5.735000000    -4.720000000    -4.489000000
C    -3.627000000    -4.418000000    -4.433000000
O    -3.730000000    -3.302000000    -5.310000000
C    -3.429000000    -2.006000000    -4.845000000
C    -2.814000000    -1.133000000    -5.751000000
H    -2.496000000    -1.476000000    -6.732000000
C    -2.664000000     0.206000000    -5.386000000
O    -1.890000000     0.960000000    -6.260000000
C    -1.341000000     2.228000000    -5.888000000
C    -2.171000000     3.364000000    -5.873000000
H    -3.159000000     3.267000000    -6.315000000
C    -1.659000000     4.614000000    -5.451000000
H    -2.288000000     5.499000000    -5.508000000
C    -0.352000000     4.683000000    -4.856000000
H     0.024000000     5.687000000    -4.675000000
C     0.357000000     3.536000000    -4.731000000
C    -0.096000000     2.309000000    -5.249000000
H     0.598000000     1.478000000    -5.349000000
O     3.396000000     3.502000000    -6.648000000
H     2.989000000     3.566000000    -5.784000000
H     2.868000000     4.075000000    -7.204000000
O     4.103000000    -3.260000000    -9.114000000
H     3.837000000    -3.878000000    -8.432000000
H     4.032000000    -2.400000000    -8.698000000
O     4.968000000    -2.186000000    -5.043000000
H     4.309000000    -1.495000000    -4.972000000
H     4.480000000    -2.952000000    -5.345000000
O     8.157000000    -2.362000000    -4.252000000
H     8.231000000    -3.278000000    -4.522000000
H     7.345000000    -2.058000000    -4.658000000
O    -0.905000000    -3.658000000    -7.120000000
H    -0.405000000    -3.439000000    -7.907000000
H    -0.651000000    -2.992000000    -6.482000000
O     3.004000000    -4.417000000    -6.680000000
H     3.697000000    -4.963000000    -6.308000000
H     2.636000000    -4.946000000    -7.388000000
O     3.713000000     0.622000000    -5.925000000
H     4.118000000     1.475000000    -5.770000000
H     3.520000000     0.287000000    -5.049000000
O     1.503000000    -3.831000000    -4.166000000
H     1.837000000    -3.940000000    -5.056000000
H     1.800000000    -2.959000000    -3.904000000
O     4.791000000    -3.599000000    -2.446000000
H     5.239000000    -2.997000000    -1.852000000
H     4.795000000    -3.149000000    -3.291000000
O     3.279000000    -5.826000000    -3.027000000
H     2.535000000    -5.411000000    -3.462000000
H     3.855000000    -5.099000000    -2.792000000
O     2.015000000     1.479000000    -8.226000000
H     2.619000000     1.990000000    -7.685000000
H     1.652000000     0.827000000    -7.627000000
O     7.729000000    -2.982000000    -0.425000000
H     8.202000000    -2.204000000    -0.130000000
H     6.854000000    -2.888000000    -0.050000000
O     8.782000000     2.270000000    -1.579000000
H     8.135000000     1.770000000    -2.076000000
H     9.076000000     2.951000000    -2.185000000
O     6.872000000    -5.268000000    -3.344000000
H     6.820000000    -5.977000000    -2.703000000
H     6.011000000    -4.851000000    -3.310000000
O     6.602000000     0.644000000    -2.831000000
H     5.671000000     0.475000000    -2.981000000
H     7.045000000     0.199000000    -3.553000000
O     4.193000000    -0.717000000    -8.178000000
H     3.982000000    -0.347000000    -7.321000000
H     5.034000000    -0.323000000    -8.408000000
O     0.918000000    -1.615000000    -6.131000000
H     1.539000000    -1.409000000    -5.432000000
H     1.455000000    -1.669000000    -6.921000000
O     5.672000000     2.574000000    -7.982000000
H     5.380000000     3.143000000    -8.694000000
H     4.968000000     2.619000000    -7.335000000
O     5.023000000     2.531000000    -4.184000000
H     4.260000000     2.228000000    -3.692000000
H     5.772000000     2.273000000    -3.647000000
