201
-1255.75395
C     2.998000000    -1.990000000     2.251000000
H     2.143000000    -2.657000000     2.325000000
C     2.979000000    -0.751000000     2.971000000
C     3.939000000     0.211000000     2.694000000
H     3.753000000     1.180000000     3.150000000
C     1.746000000    -0.268000000     3.678000000
O     1.097000000    -1.330000000     4.401000000
H     1.141000000     0.042000000     2.814000000
O     1.821000000     0.920000000     4.480000000
C     0.850000000     1.835000000     4.289000000
C     1.154000000     2.877000000     3.433000000
H     2.139000000     3.074000000     3.017000000
C     0.187000000     3.707000000     2.933000000
O     0.568000000     4.693000000     2.086000000
C    -1.160000000     3.462000000     3.283000000
C    -2.312000000     4.381000000     2.771000000
H    -3.186000000     4.257000000     3.414000000
C    -2.759000000     3.866000000     1.366000000
C    -3.843000000     3.002000000     1.249000000
H    -4.466000000     2.677000000     2.078000000
H    -2.049000000     5.438000000     2.697000000
C    -1.477000000     2.442000000     4.200000000
H    -2.475000000     2.320000000     4.614000000
C    -0.489000000     1.603000000     4.665000000
C    -0.878000000     0.348000000     5.438000000
H    -1.745000000     0.514000000     6.081000000
H    -0.116000000     0.259000000     6.216000000
C    -1.189000000    -0.820000000     4.513000000
C    -2.536000000    -1.098000000     4.227000000
H    -3.269000000    -0.429000000     4.670000000
C    -0.186000000    -1.685000000     4.074000000
C    -0.556000000    -2.837000000     3.376000000
H     0.175000000    -3.603000000     3.130000000
C    -1.921000000    -3.068000000     3.069000000
O    -2.293000000    -4.226000000     2.314000000
C    -2.276000000    -4.037000000     0.866000000
C    -1.516000000    -5.091000000     0.154000000
C    -1.666000000    -5.298000000    -1.257000000
H    -2.175000000    -4.545000000    -1.853000000
C    -0.560000000    -5.863000000     0.786000000
H    -0.523000000    -5.808000000     1.871000000
O    -3.569000000    -3.850000000     0.312000000
H    -1.710000000    -3.102000000     0.740000000
C    -2.929000000    -2.116000000     3.336000000
C    -4.413000000    -2.379000000     2.851000000
H    -5.087000000    -1.845000000     3.524000000
H    -4.707000000    -3.430000000     2.882000000
C    -4.596000000    -1.854000000     1.411000000
C    -5.102000000    -0.578000000     1.253000000
H    -5.423000000     0.037000000     2.090000000
C    -4.210000000    -2.589000000     0.265000000
C    -4.149000000    -1.948000000    -0.987000000
H    -3.931000000    -2.583000000    -1.842000000
C    -4.483000000    -0.583000000    -1.081000000
O    -4.349000000     0.018000000    -2.307000000
C    -3.151000000     0.829000000    -2.348000000
C    -2.206000000     0.595000000    -3.555000000
C    -1.920000000    -0.680000000    -4.013000000
H    -2.420000000    -1.578000000    -3.660000000
C    -1.402000000     1.643000000    -4.062000000
H    -1.523000000     2.680000000    -3.758000000
O    -3.563000000     2.243000000    -2.261000000
H    -2.558000000     0.507000000    -1.479000000
C    -4.991000000     0.040000000     0.056000000
C    -5.443000000     1.497000000    -0.027000000
H    -6.140000000     1.804000000     0.755000000
H    -5.840000000     1.760000000    -1.009000000
C    -4.281000000     2.501000000     0.023000000
C    -3.454000000     2.835000000    -1.054000000
C    -2.411000000     3.693000000    -0.955000000
H    -1.736000000     3.863000000    -1.790000000
C    -2.101000000     4.310000000     0.232000000
O    -0.910000000     5.070000000     0.283000000
C     0.294000000     4.398000000     0.718000000
H     0.148000000     3.314000000     0.599000000
C     1.483000000     4.830000000    -0.150000000
C     2.741000000     4.797000000     0.344000000
H     2.875000000     4.569000000     1.398000000
C     1.275000000     5.207000000    -1.463000000
H     0.283000000     5.087000000    -1.892000000
C     2.376000000     5.599000000    -2.273000000
O     2.262000000     6.017000000    -3.566000000
C     3.665000000     5.521000000    -1.737000000
H     4.556000000     5.711000000    -2.329000000
C     3.808000000     5.246000000    -0.366000000
O     5.011000000     5.142000000     0.132000000
C     5.471000000     4.226000000     1.033000000
C     5.337000000     2.891000000     0.871000000
H     5.049000000     2.436000000    -0.073000000
C     6.104000000     4.739000000     2.214000000
H     6.271000000     5.806000000     2.334000000
C     6.522000000     3.877000000     3.181000000
H     6.822000000     4.294000000     4.139000000
C     6.554000000     2.506000000     3.012000000
H     7.081000000     1.751000000     3.591000000
C     6.004000000     2.046000000     1.808000000
O     6.053000000     0.724000000     1.562000000
C     5.088000000    -0.158000000     1.943000000
C     5.126000000    -1.455000000     1.337000000
H     5.921000000    -1.657000000     0.625000000
C     4.127000000    -2.368000000     1.550000000
O     4.159000000    -3.552000000     0.826000000
C     3.738000000    -4.674000000     1.430000000
C     2.658000000    -5.332000000     0.817000000
H     2.132000000    -4.835000000     0.007000000
C     4.357000000    -5.252000000     2.510000000
H     5.169000000    -4.743000000     3.022000000
C     3.947000000    -6.520000000     2.954000000
H     4.543000000    -6.901000000     3.780000000
C     2.929000000    -7.227000000     2.340000000
H     2.511000000    -8.143000000     2.750000000
C     2.269000000    -6.615000000     1.272000000
O     1.285000000    -7.405000000     0.703000000
C     0.167000000    -6.898000000     0.073000000
C    -0.177000000    -7.151000000    -1.244000000
H     0.137000000    -8.043000000    -1.781000000
C    -1.031000000    -6.317000000    -1.930000000
O    -1.206000000    -6.583000000    -3.255000000
C    -1.388000000    -5.595000000    -4.222000000
C    -0.802000000    -4.282000000    -4.213000000
H    -0.092000000    -4.054000000    -3.421000000
C    -2.450000000    -5.819000000    -5.091000000
H    -3.078000000    -6.706000000    -5.062000000
C    -2.928000000    -4.853000000    -5.946000000
H    -3.702000000    -5.021000000    -6.691000000
C    -2.282000000    -3.594000000    -6.010000000
H    -2.582000000    -2.848000000    -6.742000000
C    -1.191000000    -3.364000000    -5.171000000
O    -0.458000000    -2.227000000    -5.351000000
C    -0.856000000    -0.944000000    -4.947000000
C    -0.113000000     0.089000000    -5.387000000
H     0.628000000    -0.087000000    -6.163000000
C    -0.484000000     1.374000000    -5.028000000
O     0.101000000     2.316000000    -5.803000000
C     0.208000000     3.677000000    -5.494000000
C    -0.690000000     4.568000000    -6.146000000
H    -1.453000000     4.103000000    -6.766000000
C    -0.596000000     5.954000000    -5.949000000
H    -1.320000000     6.615000000    -6.421000000
C     0.407000000     6.477000000    -5.067000000
H     0.416000000     7.549000000    -4.890000000
C     1.272000000     5.556000000    -4.470000000
C     1.169000000     4.162000000    -4.601000000
H     1.952000000     3.569000000    -4.137000000
O     4.442000000     3.827000000    -5.724000000
H     5.283000000     4.037000000    -6.129000000
H     3.790000000     4.193000000    -6.322000000
O     8.875000000    -0.924000000    -2.883000000
H     7.965000000    -1.214000000    -2.959000000
H     8.816000000     0.028000000    -2.804000000
O     3.748000000    -4.438000000    -2.497000000
H     3.550000000    -3.529000000    -2.723000000
H     4.317000000    -4.376000000    -1.730000000
O     7.144000000    -6.430000000    -3.419000000
H     7.280000000    -5.713000000    -4.039000000
H     6.583000000    -7.049000000    -3.886000000
O     3.274000000    -2.687000000    -5.887000000
H     3.105000000    -2.259000000    -5.048000000
H     3.494000000    -1.969000000    -6.481000000
O     3.739000000     1.139000000    -5.701000000
H     3.792000000     2.093000000    -5.752000000
H     4.050000000     0.928000000    -4.821000000
O     3.168000000    -6.769000000    -4.043000000
H     3.038000000    -7.356000000    -3.298000000
H     3.392000000    -5.926000000    -3.648000000
O     6.383000000    -4.262000000    -1.657000000
H     7.038000000    -4.240000000    -0.959000000
H     6.446000000    -5.147000000    -2.016000000
O     9.823000000    -3.010000000    -1.268000000
H     9.206000000    -3.538000000    -0.762000000
H     9.270000000    -2.443000000    -1.805000000
O     7.596000000    -4.291000000    -5.009000000
H     7.492000000    -4.167000000    -5.952000000
H     7.236000000    -3.494000000    -4.620000000
O     8.335000000     1.887000000    -3.427000000
H     7.404000000     1.934000000    -3.212000000
H     8.441000000     2.485000000    -4.167000000
O     4.796000000    -5.480000000    -6.309000000
H     4.760000000    -6.161000000    -5.637000000
H     4.809000000    -4.659000000    -5.817000000
O     8.373000000     2.393000000    -0.830000000
H     8.469000000     2.266000000    -1.774000000
H     7.433000000     2.516000000    -0.700000000
O     6.182000000    -2.389000000    -3.570000000
H     5.412000000    -1.830000000    -3.472000000
H     5.996000000    -3.153000000    -3.024000000
O     1.837000000    -3.781000000    -7.863000000
H     2.174000000    -3.434000000    -7.037000000
H     1.882000000    -3.042000000    -8.470000000
O     4.144000000    -0.569000000    -7.756000000
H     4.162000000    -0.076000000    -8.576000000
H     3.825000000     0.058000000    -7.107000000
O     1.793000000    -6.455000000    -6.191000000
H     2.374000000    -6.632000000    -5.451000000
H     2.153000000    -5.665000000    -6.594000000
O     5.814000000     2.363000000    -2.529000000
H     5.432000000     1.488000000    -2.596000000
H     5.183000000     2.935000000    -2.966000000
O     6.207000000    -2.051000000    -6.352000000
H     5.627000000    -1.757000000    -7.054000000
H     5.648000000    -2.078000000    -5.575000000
