201
-1226.99018
C     3.391000000    -1.847000000     1.810000000
H     2.713000000    -2.674000000     2.008000000
C     3.406000000    -0.701000000     2.663000000
C     4.431000000     0.248000000     2.481000000
H     4.491000000     1.110000000     3.140000000
C     2.236000000    -0.363000000     3.562000000
O     1.848000000    -1.486000000     4.392000000
H     1.404000000    -0.324000000     2.843000000
O     2.324000000     0.912000000     4.183000000
C     1.200000000     1.711000000     4.191000000
C     1.412000000     2.752000000     3.335000000
H     2.413000000     2.943000000     2.956000000
C     0.343000000     3.602000000     3.086000000
O     0.504000000     4.618000000     2.222000000
C    -0.957000000     3.316000000     3.579000000
C    -2.285000000     4.193000000     3.260000000
H    -3.023000000     3.947000000     4.027000000
C    -2.892000000     3.735000000     1.957000000
C    -3.947000000     2.771000000     1.945000000
H    -4.281000000     2.387000000     2.905000000
H    -1.917000000     5.220000000     3.309000000
C    -1.148000000     2.269000000     4.527000000
H    -2.100000000     2.013000000     4.986000000
C    -0.012000000     1.441000000     4.794000000
C    -0.364000000     0.194000000     5.563000000
H    -1.092000000     0.368000000     6.357000000
H     0.514000000    -0.015000000     6.179000000
C    -0.552000000    -1.155000000     4.837000000
C    -1.850000000    -1.574000000     4.569000000
H    -2.621000000    -0.920000000     4.969000000
C     0.535000000    -1.908000000     4.348000000
C     0.231000000    -3.003000000     3.594000000
H     1.078000000    -3.567000000     3.212000000
C    -1.060000000    -3.407000000     3.284000000
O    -1.186000000    -4.449000000     2.365000000
C    -1.552000000    -4.267000000     0.982000000
C    -0.800000000    -5.256000000     0.083000000
C    -1.288000000    -5.410000000    -1.236000000
H    -2.125000000    -4.770000000    -1.502000000
C     0.288000000    -5.987000000     0.481000000
H     0.728000000    -5.902000000     1.472000000
O    -3.029000000    -4.224000000     0.736000000
H    -1.072000000    -3.293000000     0.804000000
C    -2.151000000    -2.641000000     3.772000000
C    -3.538000000    -2.988000000     3.302000000
H    -4.228000000    -2.680000000     4.091000000
H    -3.607000000    -4.078000000     3.303000000
C    -3.903000000    -2.313000000     1.944000000
C    -4.475000000    -1.038000000     1.958000000
H    -4.840000000    -0.466000000     2.807000000
C    -3.688000000    -2.973000000     0.755000000
C    -3.844000000    -2.286000000    -0.421000000
H    -3.583000000    -2.696000000    -1.393000000
C    -4.392000000    -1.003000000    -0.507000000
O    -4.346000000    -0.333000000    -1.715000000
C    -3.311000000     0.713000000    -1.834000000
C    -2.646000000     0.623000000    -3.222000000
C    -2.292000000    -0.660000000    -3.697000000
H    -2.392000000    -1.514000000    -3.033000000
C    -2.250000000     1.725000000    -3.920000000
H    -2.362000000     2.726000000    -3.512000000
O    -3.939000000     2.029000000    -1.627000000
H    -2.489000000     0.564000000    -1.118000000
C    -4.738000000    -0.338000000     0.725000000
C    -5.360000000     1.073000000     0.602000000
H    -6.129000000     1.140000000     1.374000000
H    -5.857000000     1.135000000    -0.368000000
C    -4.358000000     2.210000000     0.746000000
C    -3.803000000     2.680000000    -0.469000000
C    -2.947000000     3.861000000    -0.451000000
H    -2.663000000     4.198000000    -1.445000000
C    -2.419000000     4.326000000     0.765000000
O    -1.336000000     5.165000000     0.754000000
C    -0.017000000     4.458000000     0.907000000
H    -0.131000000     3.397000000     0.640000000
C     1.036000000     4.931000000    -0.085000000
C     2.448000000     4.866000000     0.134000000
H     2.830000000     4.543000000     1.099000000
C     0.573000000     5.297000000    -1.401000000
H    -0.457000000     5.327000000    -1.747000000
C     1.501000000     5.592000000    -2.439000000
O     1.109000000     6.173000000    -3.649000000
C     2.872000000     5.515000000    -2.138000000
H     3.586000000     5.755000000    -2.922000000
C     3.335000000     5.105000000    -0.901000000
O     4.696000000     4.948000000    -0.783000000
C     5.247000000     4.273000000     0.311000000
C     5.515000000     2.934000000     0.284000000
H     5.217000000     2.390000000    -0.609000000
C     5.637000000     5.024000000     1.423000000
H     5.525000000     6.100000000     1.320000000
C     6.274000000     4.429000000     2.508000000
H     6.593000000     5.005000000     3.373000000
C     6.538000000     3.038000000     2.429000000
H     7.054000000     2.545000000     3.248000000
C     6.159000000     2.295000000     1.316000000
O     6.393000000     0.955000000     1.283000000
C     5.345000000     0.090000000     1.404000000
C     5.197000000    -0.961000000     0.505000000
H     5.972000000    -1.148000000    -0.234000000
C     4.279000000    -1.963000000     0.773000000
O     4.201000000    -3.025000000    -0.069000000
C     4.213000000    -4.373000000     0.441000000
C     3.202000000    -5.185000000     0.031000000
H     2.462000000    -4.817000000    -0.676000000
C     5.271000000    -4.815000000     1.231000000
H     6.103000000    -4.123000000     1.337000000
C     5.269000000    -6.129000000     1.720000000
H     6.022000000    -6.566000000     2.371000000
C     4.199000000    -6.914000000     1.309000000
H     4.230000000    -7.967000000     1.575000000
C     3.207000000    -6.476000000     0.466000000
O     2.175000000    -7.349000000     0.025000000
C     0.952000000    -6.834000000    -0.401000000
C     0.463000000    -6.951000000    -1.684000000
H     1.012000000    -7.632000000    -2.329000000
C    -0.642000000    -6.247000000    -2.132000000
O    -1.091000000    -6.430000000    -3.364000000
C    -1.890000000    -5.462000000    -3.927000000
C    -1.306000000    -4.335000000    -4.483000000
H    -0.248000000    -4.137000000    -4.338000000
C    -3.282000000    -5.608000000    -3.881000000
H    -3.759000000    -6.524000000    -3.541000000
C    -4.081000000    -4.544000000    -4.385000000
H    -5.164000000    -4.626000000    -4.341000000
C    -3.490000000    -3.444000000    -4.971000000
H    -4.235000000    -2.698000000    -5.238000000
C    -2.130000000    -3.323000000    -4.993000000
O    -1.532000000    -2.159000000    -5.470000000
C    -1.829000000    -0.853000000    -4.977000000
C    -1.488000000     0.324000000    -5.666000000
H    -1.209000000     0.199000000    -6.709000000
C    -1.628000000     1.561000000    -5.157000000
O    -1.296000000     2.635000000    -5.909000000
C    -1.082000000     3.915000000    -5.548000000
C    -1.807000000     4.847000000    -6.274000000
H    -2.486000000     4.461000000    -7.031000000
C    -1.536000000     6.225000000    -6.186000000
H    -2.020000000     6.989000000    -6.789000000
C    -0.496000000     6.662000000    -5.288000000
H    -0.360000000     7.724000000    -5.098000000
C     0.116000000     5.688000000    -4.489000000
C    -0.156000000     4.373000000    -4.610000000
H     0.400000000     3.596000000    -4.092000000
O     1.568000000     1.627000000    -6.106000000
H     1.666000000     0.740000000    -5.761000000
H     0.624000000     1.785000000    -6.097000000
O     3.044000000     5.258000000    -5.749000000
H     3.251000000     4.426000000    -5.324000000
H     2.311000000     5.055000000    -6.330000000
O     6.980000000    -1.468000000    -7.192000000
H     6.534000000    -1.190000000    -6.392000000
H     7.905000000    -1.291000000    -7.024000000
O     3.808000000    -3.903000000    -4.489000000
H     3.761000000    -2.982000000    -4.236000000
H     3.268000000    -3.963000000    -5.277000000
O     5.073000000    -5.826000000    -2.897000000
H     4.926000000    -5.142000000    -3.550000000
H     4.353000000    -6.442000000    -3.030000000
O     3.333000000    -0.714000000    -8.752000000
H     3.386000000    -0.915000000    -9.686000000
H     3.832000000    -1.412000000    -8.328000000
O     1.698000000    -1.356000000    -6.416000000
H     2.001000000    -1.313000000    -5.509000000
H     2.446000000    -1.058000000    -6.933000000
O     3.423000000     2.774000000    -4.677000000
H     3.563000000     1.998000000    -4.135000000
H     2.751000000     2.509000000    -5.306000000
O     2.513000000    -6.477000000    -3.749000000
H     2.556000000    -5.523000000    -3.810000000
H     1.927000000    -6.737000000    -4.459000000
O     6.340000000    -2.199000000    -2.798000000
H     5.898000000    -2.950000000    -2.401000000
H     7.213000000    -2.523000000    -3.017000000
O     4.606000000     1.800000000    -7.701000000
H     4.983000000     2.676000000    -7.624000000
H     4.965000000     1.318000000    -6.956000000
O     4.988000000    -0.342000000    -5.850000000
H     4.802000000     0.214000000    -5.094000000
H     4.355000000    -1.056000000    -5.785000000
O     7.871000000     2.016000000    -4.856000000
H     7.202000000     2.684000000    -5.008000000
H     7.526000000     1.492000000    -4.133000000
O     4.737000000    -2.828000000    -7.935000000
H     5.035000000    -3.167000000    -8.778000000
H     5.518000000    -2.844000000    -7.381000000
O     6.598000000     0.490000000    -2.904000000
H     5.708000000     0.826000000    -2.800000000
H     6.487000000    -0.456000000    -3.000000000
O     7.516000000    -4.703000000    -5.645000000
H     7.220000000    -3.897000000    -5.221000000
H     6.718000000    -5.097000000    -5.996000000
O     9.218000000     0.916000000    -1.375000000
H     8.412000000     0.839000000    -1.886000000
H     9.058000000     0.387000000    -0.594000000
O     0.455000000    -3.659000000    -7.431000000
H     0.614000000    -2.813000000    -7.013000000
H     1.155000000    -4.224000000    -7.103000000
O     5.623000000     3.967000000    -3.534000000
H     5.351000000     4.212000000    -2.650000000
H     4.865000000     3.512000000    -3.901000000
