201
-1255.87330
C     3.694000000    -0.876000000     3.067000000
H     3.099000000    -1.773000000     2.914000000
C     3.149000000     0.294000000     3.652000000
C     3.989000000     1.371000000     3.886000000
H     3.621000000     2.317000000     4.277000000
C     1.681000000     0.358000000     3.955000000
O     1.257000000    -0.792000000     4.678000000
H     1.153000000     0.397000000     2.990000000
O     1.366000000     1.524000000     4.757000000
C     0.332000000     2.262000000     4.403000000
C     0.604000000     3.343000000     3.495000000
H     1.609000000     3.612000000     3.180000000
C    -0.487000000     3.949000000     2.953000000
O    -0.190000000     4.865000000     1.928000000
C    -1.785000000     3.511000000     3.077000000
C    -2.927000000     4.206000000     2.263000000
H    -3.868000000     4.121000000     2.810000000
C    -3.176000000     3.528000000     0.899000000
C    -4.178000000     2.528000000     0.876000000
H    -4.777000000     2.338000000     1.763000000
H    -2.753000000     5.271000000     2.098000000
C    -2.042000000     2.363000000     3.852000000
H    -3.059000000     2.004000000     3.980000000
C    -0.985000000     1.826000000     4.587000000
C    -1.278000000     0.616000000     5.401000000
H    -2.250000000     0.692000000     5.892000000
H    -0.576000000     0.479000000     6.226000000
C    -1.227000000    -0.668000000     4.593000000
C    -2.413000000    -1.160000000     4.090000000
H    -3.331000000    -0.595000000     4.232000000
C     0.015000000    -1.348000000     4.288000000
C    -0.079000000    -2.459000000     3.443000000
H     0.881000000    -2.932000000     3.251000000
C    -1.295000000    -3.023000000     3.117000000
O    -1.304000000    -4.215000000     2.408000000
C    -1.667000000    -4.094000000     0.968000000
C    -0.718000000    -4.780000000    -0.061000000
C    -1.137000000    -5.436000000    -1.244000000
H    -2.191000000    -5.483000000    -1.508000000
C     0.687000000    -4.666000000     0.104000000
H     0.971000000    -3.895000000     0.815000000
O    -3.059000000    -4.387000000     0.687000000
H    -1.571000000    -3.030000000     0.705000000
C    -2.504000000    -2.364000000     3.343000000
C    -3.967000000    -2.843000000     2.925000000
H    -4.645000000    -2.332000000     3.611000000
H    -4.098000000    -3.916000000     3.081000000
C    -4.237000000    -2.457000000     1.488000000
C    -4.833000000    -1.206000000     1.216000000
H    -5.203000000    -0.584000000     2.028000000
C    -3.862000000    -3.292000000     0.483000000
C    -3.992000000    -2.808000000    -0.827000000
H    -3.549000000    -3.336000000    -1.667000000
C    -4.387000000    -1.456000000    -1.077000000
O    -4.268000000    -1.032000000    -2.386000000
C    -3.206000000    -0.085000000    -2.627000000
C    -2.617000000    -0.363000000    -4.027000000
C    -2.699000000    -1.605000000    -4.633000000
H    -3.221000000    -2.403000000    -4.111000000
C    -1.785000000     0.583000000    -4.600000000
H    -1.581000000     1.459000000    -3.990000000
O    -3.602000000     1.256000000    -2.582000000
H    -2.454000000    -0.260000000    -1.844000000
C    -4.968000000    -0.708000000    -0.084000000
C    -5.444000000     0.689000000    -0.331000000
H    -6.123000000     1.021000000     0.458000000
H    -5.929000000     0.834000000    -1.299000000
C    -4.385000000     1.760000000    -0.296000000
C    -3.516000000     1.978000000    -1.419000000
C    -2.465000000     2.880000000    -1.318000000
H    -1.816000000     2.977000000    -2.185000000
C    -2.300000000     3.703000000    -0.183000000
O    -1.304000000     4.659000000    -0.209000000
C    -0.160000000     4.300000000     0.528000000
H    -0.141000000     3.208000000     0.661000000
C     1.087000000     4.589000000    -0.303000000
C     2.246000000     5.179000000     0.296000000
H     2.165000000     5.555000000     1.313000000
C     1.189000000     4.131000000    -1.590000000
H     0.267000000     3.701000000    -1.973000000
C     2.390000000     4.169000000    -2.291000000
O     2.497000000     3.504000000    -3.469000000
C     3.510000000     4.685000000    -1.672000000
H     4.453000000     4.638000000    -2.210000000
C     3.410000000     5.274000000    -0.414000000
O     4.582000000     5.738000000     0.204000000
C     5.065000000     5.453000000     1.483000000
C     5.126000000     4.124000000     1.885000000
H     4.672000000     3.278000000     1.374000000
C     5.639000000     6.448000000     2.253000000
H     5.706000000     7.449000000     1.834000000
C     6.071000000     6.136000000     3.523000000
H     6.439000000     6.966000000     4.122000000
C     6.209000000     4.830000000     3.882000000
H     6.525000000     4.513000000     4.872000000
C     5.776000000     3.819000000     3.073000000
O     6.099000000     2.548000000     3.452000000
C     5.273000000     1.399000000     3.356000000
C     5.798000000     0.224000000     2.774000000
H     6.796000000     0.081000000     2.367000000
C     5.018000000    -0.895000000     2.610000000
O     5.470000000    -1.959000000     1.877000000
C     4.907000000    -3.206000000     1.834000000
C     4.272000000    -3.496000000     0.632000000
H     4.219000000    -2.799000000    -0.200000000
C     4.801000000    -4.121000000     2.920000000
H     5.342000000    -3.891000000     3.834000000
C     4.211000000    -5.406000000     2.752000000
H     4.057000000    -6.088000000     3.584000000
C     3.547000000    -5.686000000     1.558000000
H     3.022000000    -6.631000000     1.447000000
C     3.615000000    -4.744000000     0.494000000
O     2.973000000    -4.918000000    -0.702000000
C     1.613000000    -5.212000000    -0.784000000
C     1.155000000    -5.756000000    -1.950000000
H     1.822000000    -6.105000000    -2.734000000
C    -0.237000000    -6.016000000    -2.094000000
O    -0.674000000    -6.657000000    -3.231000000
C    -1.695000000    -6.110000000    -4.025000000
C    -1.469000000    -4.839000000    -4.656000000
H    -0.563000000    -4.265000000    -4.481000000
C    -2.890000000    -6.842000000    -4.250000000
H    -2.943000000    -7.809000000    -3.756000000
C    -3.742000000    -6.385000000    -5.238000000
H    -4.593000000    -7.016000000    -5.481000000
C    -3.557000000    -5.151000000    -5.806000000
H    -4.293000000    -4.774000000    -6.511000000
C    -2.424000000    -4.383000000    -5.592000000
O    -2.157000000    -3.211000000    -6.337000000
C    -2.086000000    -1.884000000    -5.856000000
C    -1.354000000    -0.907000000    -6.543000000
H    -0.890000000    -1.142000000    -7.497000000
C    -1.189000000     0.295000000    -5.872000000
O    -0.288000000     1.208000000    -6.447000000
C     0.061000000     2.400000000    -5.901000000
C    -0.507000000     3.616000000    -6.243000000
H    -1.366000000     3.600000000    -6.910000000
C    -0.107000000     4.825000000    -5.668000000
H    -0.513000000     5.775000000    -6.003000000
C     0.941000000     4.776000000    -4.742000000
H     1.333000000     5.640000000    -4.212000000
C     1.454000000     3.530000000    -4.357000000
C     0.936000000     2.364000000    -4.877000000
H     1.274000000     1.390000000    -4.533000000
O     2.182000000    -1.183000000    -7.315000000
H     1.374000000    -0.750000000    -7.590000000
H     1.895000000    -1.863000000    -6.705000000
O     3.635000000     0.191000000    -5.500000000
H     3.473000000    -0.424000000    -4.785000000
H     3.031000000    -0.081000000    -6.191000000
O     6.823000000    -3.417000000    -5.693000000
H     6.986000000    -4.318000000    -5.975000000
H     7.354000000    -2.882000000    -6.283000000
O     5.031000000    -4.174000000    -2.588000000
H     4.855000000    -3.302000000    -2.940000000
H     4.469000000    -4.239000000    -1.816000000
O     8.117000000     1.295000000     0.660000000
H     7.389000000     0.730000000     0.401000000
H     8.684000000     1.323000000    -0.111000000
O     4.926000000    -6.896000000    -3.639000000
H     4.868000000    -6.112000000    -3.092000000
H     5.863000000    -7.006000000    -3.801000000
O     7.296000000     4.269000000    -4.991000000
H     6.592000000     3.625000000    -5.065000000
H     7.401000000     4.612000000    -5.879000000
O     2.423000000    -5.513000000    -5.177000000
H     3.005000000    -5.932000000    -4.544000000
H     1.920000000    -6.235000000    -5.555000000
O     5.176000000     2.308000000    -2.714000000
H     4.927000000     2.520000000    -3.613000000
H     4.680000000     1.515000000    -2.509000000
O     5.221000000     2.540000000    -5.603000000
H     4.639000000     1.780000000    -5.571000000
H     4.709000000     3.216000000    -6.046000000
O     3.376000000    -4.000000000    -7.292000000
H     2.816000000    -4.592000000    -6.791000000
H     3.219000000    -3.138000000    -6.908000000
O     1.870000000     2.207000000    -8.897000000
H     2.467000000     1.768000000    -9.503000000
H     2.314000000     2.164000000    -8.051000000
O     7.641000000    -5.097000000    -3.023000000
H     7.726000000    -5.518000000    -3.878000000
H     6.818000000    -4.610000000    -3.075000000
O     8.195000000    -2.147000000     1.276000000
H     7.991000000    -2.986000000     1.689000000
H     7.352000000    -1.824000000     0.958000000
O     7.760000000     1.159000000    -3.960000000
H     7.413000000     0.322000000    -4.269000000
H     7.004000000     1.746000000    -3.960000000
O     6.460000000    -1.112000000    -4.318000000
H     6.409000000    -2.020000000    -4.617000000
H     5.548000000    -0.843000000    -4.212000000
O     6.473000000    -0.575000000    -0.862000000
H     6.892000000    -1.057000000    -1.575000000
H     5.672000000    -0.222000000    -1.251000000
O     7.289000000     3.704000000    -0.841000000
H     6.479000000     3.386000000    -1.239000000
H     7.501000000     3.051000000    -0.174000000
O     1.438000000    -2.940000000    -5.177000000
H     1.950000000    -2.438000000    -4.543000000
H     1.924000000    -3.757000000    -5.284000000
