201
-1262.97268
C     2.645000000    -1.126000000     3.859000000
H     2.248000000    -2.069000000     3.492000000
C     1.806000000    -0.059000000     4.178000000
C     2.339000000     1.114000000     4.593000000
H     1.791000000     2.049000000     4.675000000
C     0.312000000    -0.223000000     4.173000000
O    -0.019000000    -1.571000000     4.522000000
H     0.011000000    -0.163000000     3.116000000
O    -0.383000000     0.779000000     4.897000000
C    -1.387000000     1.373000000     4.308000000
C    -1.028000000     2.468000000     3.571000000
H    -0.036000000     2.888000000     3.715000000
C    -1.983000000     3.097000000     2.772000000
O    -1.577000000     4.178000000     2.035000000
C    -3.229000000     2.546000000     2.638000000
C    -4.247000000     3.134000000     1.710000000
H    -5.262000000     2.780000000     1.904000000
C    -3.974000000     2.624000000     0.244000000
C    -4.639000000     1.448000000    -0.237000000
H    -5.301000000     0.881000000     0.413000000
H    -4.305000000     4.224000000     1.711000000
C    -3.517000000     1.303000000     3.190000000
H    -4.456000000     0.789000000     3.003000000
C    -2.612000000     0.707000000     4.083000000
C    -2.947000000    -0.668000000     4.743000000
H    -4.039000000    -0.646000000     4.746000000
H    -2.583000000    -0.708000000     5.772000000
C    -2.409000000    -1.770000000     3.846000000
C    -3.246000000    -2.406000000     2.912000000
H    -4.290000000    -2.106000000     2.874000000
C    -1.063000000    -2.162000000     3.815000000
C    -0.683000000    -3.235000000     2.996000000
H     0.352000000    -3.552000000     2.895000000
C    -1.525000000    -3.878000000     2.113000000
O    -1.078000000    -4.834000000     1.250000000
C    -0.655000000    -4.355000000    -0.014000000
C     0.609000000    -5.012000000    -0.503000000
C     0.887000000    -5.254000000    -1.824000000
H     0.085000000    -4.942000000    -2.488000000
C     1.576000000    -5.321000000     0.462000000
H     1.470000000    -5.072000000     1.514000000
O    -1.726000000    -4.678000000    -0.979000000
H    -0.567000000    -3.262000000     0.066000000
C    -2.830000000    -3.354000000     2.058000000
C    -3.862000000    -3.941000000     1.066000000
H    -4.895000000    -3.755000000     1.367000000
H    -3.653000000    -5.012000000     1.106000000
C    -3.678000000    -3.296000000    -0.256000000
C    -4.421000000    -2.158000000    -0.498000000
H    -5.134000000    -1.822000000     0.251000000
C    -2.659000000    -3.667000000    -1.198000000
C    -2.396000000    -2.894000000    -2.353000000
H    -1.611000000    -3.179000000    -3.049000000
C    -3.152000000    -1.773000000    -2.503000000
O    -2.888000000    -1.057000000    -3.648000000
C    -2.227000000     0.188000000    -3.465000000
C    -0.997000000     0.322000000    -4.427000000
C    -0.173000000    -0.775000000    -4.629000000
H    -0.330000000    -1.696000000    -4.073000000
C    -0.658000000     1.594000000    -4.878000000
H    -1.145000000     2.514000000    -4.565000000
O    -3.156000000     1.277000000    -3.626000000
H    -1.906000000     0.135000000    -2.415000000
C    -4.197000000    -1.395000000    -1.692000000
C    -5.051000000    -0.193000000    -2.034000000
H    -6.084000000    -0.244000000    -1.681000000
H    -5.238000000    -0.079000000    -3.104000000
C    -4.360000000     1.007000000    -1.506000000
C    -3.516000000     1.743000000    -2.381000000
C    -2.841000000     2.865000000    -1.887000000
H    -2.270000000     3.370000000    -2.661000000
C    -3.126000000     3.352000000    -0.642000000
O    -2.383000000     4.360000000    -0.169000000
C    -1.248000000     3.947000000     0.650000000
H    -1.057000000     2.875000000     0.491000000
C     0.053000000     4.680000000     0.239000000
C     1.177000000     4.802000000     1.036000000
H     1.162000000     4.387000000     2.041000000
C     0.085000000     5.245000000    -1.016000000
H    -0.814000000     5.252000000    -1.627000000
C     1.291000000     5.757000000    -1.474000000
O     1.299000000     6.298000000    -2.721000000
C     2.415000000     5.907000000    -0.688000000
H     3.362000000     6.303000000    -1.045000000
C     2.368000000     5.383000000     0.600000000
O     3.568000000     5.413000000     1.319000000
C     3.706000000     5.155000000     2.627000000
C     3.889000000     3.859000000     3.202000000
H     4.026000000     3.094000000     2.441000000
C     3.513000000     6.221000000     3.574000000
H     3.256000000     7.243000000     3.308000000
C     3.415000000     5.974000000     4.963000000
H     3.196000000     6.779000000     5.659000000
C     3.725000000     4.682000000     5.465000000
H     3.557000000     4.413000000     6.504000000
C     3.945000000     3.648000000     4.555000000
O     4.296000000     2.423000000     5.041000000
C     3.732000000     1.216000000     4.694000000
C     4.569000000     0.178000000     4.438000000
H     5.648000000     0.311000000     4.445000000
C     3.995000000    -1.020000000     3.979000000
O     4.776000000    -2.047000000     3.562000000
C     4.344000000    -3.393000000     3.407000000
C     4.460000000    -4.050000000     2.156000000
H     4.849000000    -3.597000000     1.248000000
C     3.887000000    -4.058000000     4.471000000
H     3.860000000    -3.661000000     5.482000000
C     3.428000000    -5.440000000     4.346000000
H     3.074000000    -5.996000000     5.211000000
C     3.512000000    -6.064000000     3.106000000
H     3.259000000    -7.103000000     2.908000000
C     4.013000000    -5.351000000     2.029000000
O     3.876000000    -5.925000000     0.774000000
C     2.790000000    -5.899000000     0.024000000
C     3.069000000    -6.052000000    -1.331000000
H     4.041000000    -6.409000000    -1.662000000
C     2.114000000    -5.721000000    -2.259000000
O     2.379000000    -5.944000000    -3.648000000
C     1.824000000    -5.134000000    -4.552000000
C     2.117000000    -3.780000000    -4.546000000
H     2.872000000    -3.458000000    -3.834000000
C     0.879000000    -5.680000000    -5.375000000
H     0.582000000    -6.719000000    -5.258000000
C     0.228000000    -4.880000000    -6.401000000
H    -0.534000000    -5.293000000    -7.057000000
C     0.590000000    -3.543000000    -6.467000000
H     0.180000000    -2.902000000    -7.243000000
C     1.524000000    -2.958000000    -5.569000000
O     1.826000000    -1.624000000    -5.686000000
C     0.998000000    -0.605000000    -5.382000000
C     1.319000000     0.667000000    -5.887000000
H     2.296000000     0.770000000    -6.351000000
C     0.520000000     1.757000000    -5.583000000
O     0.804000000     3.012000000    -6.101000000
C     0.371000000     4.197000000    -5.514000000
C    -0.716000000     4.864000000    -6.085000000
H    -1.259000000     4.402000000    -6.905000000
C    -1.098000000     6.058000000    -5.522000000
H    -1.988000000     6.507000000    -5.956000000
C    -0.486000000     6.551000000    -4.357000000
H    -0.861000000     7.487000000    -3.950000000
C     0.580000000     5.880000000    -3.781000000
C     1.018000000     4.685000000    -4.411000000
H     1.966000000     4.279000000    -4.067000000
O     8.978000000    -2.760000000    -3.466000000
H     9.566000000    -2.130000000    -3.050000000
H     9.062000000    -2.583000000    -4.403000000
O     9.185000000     3.278000000     1.446000000
H     8.849000000     2.460000000     1.079000000
H     9.336000000     3.080000000     2.370000000
O     5.296000000    -4.323000000    -5.262000000
H     5.147000000    -4.006000000    -6.153000000
H     5.421000000    -3.528000000    -4.743000000
O     9.821000000     0.278000000     2.156000000
H     8.943000000     0.042000000     1.858000000
H    10.292000000    -0.554000000     2.197000000
O     7.151000000    -6.156000000     0.762000000
H     7.270000000    -5.245000000     0.495000000
H     6.206000000    -6.300000000     0.708000000
O     7.011000000     3.351000000     3.620000000
H     7.029000000     2.779000000     2.853000000
H     6.192000000     3.131000000     4.064000000
O     9.912000000     0.019000000    -1.422000000
H    10.441000000    -0.772000000    -1.325000000
H    10.061000000     0.508000000    -0.612000000
O     6.523000000     1.175000000    -4.341000000
H     7.168000000     0.763000000    -4.915000000
H     6.878000000     1.059000000    -3.459000000
O     6.819000000     1.791000000     1.442000000
H     6.353000000     1.003000000     1.163000000
H     6.422000000     2.497000000     0.932000000
O     7.253000000     1.047000000    -1.689000000
H     6.781000000     0.443000000    -1.117000000
H     8.077000000     0.600000000    -1.883000000
O     5.246000000     3.464000000    -0.400000000
H     4.298000000     3.380000000    -0.292000000
H     5.448000000     2.929000000    -1.167000000
O    10.134000000    -2.620000000    -0.330000000
H     9.739000000    -3.479000000    -0.479000000
H    10.177000000    -2.539000000     0.623000000
O     6.157000000    -2.496000000    -3.183000000
H     7.099000000    -2.663000000    -3.169000000
H     5.890000000    -2.551000000    -2.265000000
O     7.344000000    -1.727000000     1.596000000
H     6.908000000    -1.818000000     2.444000000
H     6.721000000    -1.238000000     1.058000000
O     7.100000000    -3.619000000    -0.277000000
H     7.613000000    -2.866000000     0.015000000
H     6.190000000    -3.325000000    -0.223000000
O     4.419000000     4.676000000    -3.197000000
H     3.688000000     4.369000000    -2.660000000
H     4.039000000     4.806000000    -4.066000000
O     2.816000000     2.854000000    -1.774000000
H     2.131000000     2.397000000    -1.286000000
H     3.104000000     2.220000000    -2.431000000
O     4.789000000    -1.329000000    -5.683000000
H     4.611000000    -1.999000000    -6.343000000
H     4.536000000    -1.736000000    -4.855000000
O     3.966000000     0.973000000    -3.298000000
H     4.719000000     1.352000000    -3.753000000
H     4.304000000     0.167000000    -2.907000000
