201
-1254.22558
C     2.245000000    -1.471000000     4.367000000
H     1.761000000    -2.444000000     4.334000000
C     1.489000000    -0.362000000     4.198000000
C     2.051000000     0.937000000     4.329000000
H     1.520000000     1.883000000     4.251000000
C    -0.008000000    -0.515000000     3.847000000
O    -0.622000000    -1.679000000     4.496000000
H    -0.038000000    -0.644000000     2.755000000
O    -0.684000000     0.613000000     4.342000000
C    -1.579000000     1.284000000     3.571000000
C    -1.310000000     2.551000000     3.043000000
H    -0.406000000     3.136000000     3.190000000
C    -2.263000000     3.177000000     2.202000000
O    -1.844000000     4.279000000     1.478000000
C    -3.473000000     2.562000000     1.934000000
C    -4.382000000     3.160000000     0.861000000
H    -5.377000000     2.769000000     1.084000000
C    -4.011000000     2.636000000    -0.537000000
C    -4.686000000     1.560000000    -1.096000000
H    -5.457000000     1.025000000    -0.547000000
H    -4.398000000     4.249000000     0.944000000
C    -3.766000000     1.360000000     2.576000000
H    -4.696000000     0.831000000     2.386000000
C    -2.884000000     0.722000000     3.410000000
C    -3.363000000    -0.490000000     4.157000000
H    -4.448000000    -0.416000000     4.257000000
H    -2.977000000    -0.491000000     5.179000000
C    -2.868000000    -1.756000000     3.492000000
C    -3.669000000    -2.365000000     2.525000000
H    -4.658000000    -1.957000000     2.336000000
C    -1.563000000    -2.260000000     3.699000000
C    -1.237000000    -3.476000000     3.082000000
H    -0.330000000    -4.005000000     3.363000000
C    -2.010000000    -4.019000000     2.020000000
O    -1.393000000    -5.009000000     1.262000000
C    -0.682000000    -4.444000000     0.170000000
C     0.658000000    -5.049000000    -0.045000000
C     1.275000000    -4.840000000    -1.215000000
H     0.788000000    -4.362000000    -2.061000000
C     1.331000000    -5.592000000     1.098000000
H     0.829000000    -5.781000000     2.044000000
O    -1.567000000    -4.552000000    -0.999000000
H    -0.433000000    -3.417000000     0.474000000
C    -3.249000000    -3.488000000     1.705000000
C    -4.096000000    -3.834000000     0.511000000
H    -5.125000000    -3.593000000     0.787000000
H    -4.037000000    -4.923000000     0.457000000
C    -3.644000000    -3.095000000    -0.739000000
C    -4.413000000    -2.058000000    -1.217000000
H    -5.238000000    -1.608000000    -0.670000000
C    -2.435000000    -3.541000000    -1.382000000
C    -2.090000000    -2.913000000    -2.551000000
H    -1.153000000    -3.149000000    -3.047000000
C    -2.770000000    -1.797000000    -2.972000000
O    -2.273000000    -1.093000000    -4.029000000
C    -1.756000000     0.251000000    -4.036000000
C    -0.595000000     0.445000000    -5.013000000
C     0.414000000    -0.482000000    -5.066000000
H     0.308000000    -1.421000000    -4.529000000
C    -0.327000000     1.666000000    -5.543000000
H    -1.014000000     2.491000000    -5.371000000
O    -2.837000000     1.194000000    -4.215000000
H    -1.320000000     0.529000000    -3.065000000
C    -3.986000000    -1.425000000    -2.401000000
C    -4.800000000    -0.188000000    -2.875000000
H    -5.794000000    -0.268000000    -2.430000000
H    -5.036000000    -0.153000000    -3.941000000
C    -4.298000000     1.060000000    -2.377000000
C    -3.404000000     1.793000000    -3.134000000
C    -2.813000000     2.936000000    -2.653000000
H    -2.145000000     3.484000000    -3.313000000
C    -3.035000000     3.309000000    -1.345000000
O    -2.244000000     4.350000000    -0.804000000
C    -1.349000000     3.991000000     0.182000000
H    -1.216000000     2.904000000     0.077000000
C     0.004000000     4.670000000    -0.001000000
C     0.794000000     4.989000000     1.104000000
H     0.543000000     4.602000000     2.088000000
C     0.475000000     5.041000000    -1.259000000
H    -0.166000000     4.736000000    -2.082000000
C     1.711000000     5.670000000    -1.450000000
O     2.269000000     5.886000000    -2.721000000
C     2.483000000     5.958000000    -0.349000000
H     3.500000000     6.320000000    -0.470000000
C     2.061000000     5.621000000     0.912000000
O     2.893000000     5.930000000     1.905000000
C     2.816000000     5.262000000     3.121000000
C     3.621000000     4.137000000     3.331000000
H     4.270000000     3.821000000     2.518000000
C     2.071000000     5.760000000     4.259000000
H     1.576000000     6.721000000     4.145000000
C     2.070000000     5.097000000     5.464000000
H     1.555000000     5.546000000     6.310000000
C     2.802000000     3.922000000     5.572000000
H     2.902000000     3.331000000     6.479000000
C     3.509000000     3.379000000     4.477000000
O     4.164000000     2.215000000     4.655000000
C     3.444000000     1.010000000     4.606000000
C     4.191000000    -0.152000000     4.731000000
H     5.241000000    -0.032000000     4.983000000
C     3.644000000    -1.424000000     4.517000000
O     4.372000000    -2.572000000     4.690000000
C     3.742000000    -3.794000000     4.550000000
C     3.855000000    -4.485000000     3.367000000
H     4.324000000    -3.976000000     2.529000000
C     3.068000000    -4.307000000     5.619000000
H     3.130000000    -3.861000000     6.609000000
C     2.563000000    -5.597000000     5.495000000
H     1.992000000    -6.074000000     6.287000000
C     2.715000000    -6.365000000     4.336000000
H     2.347000000    -7.383000000     4.236000000
C     3.383000000    -5.783000000     3.267000000
O     3.366000000    -6.341000000     2.037000000
C     2.625000000    -5.958000000     0.913000000
C     3.249000000    -5.812000000    -0.315000000
H     4.305000000    -6.065000000    -0.357000000
C     2.599000000    -5.268000000    -1.481000000
O     3.363000000    -5.067000000    -2.592000000
C     2.899000000    -4.506000000    -3.838000000
C     3.094000000    -3.116000000    -4.114000000
H     3.616000000    -2.457000000    -3.425000000
C     2.052000000    -5.202000000    -4.729000000
H     1.733000000    -6.220000000    -4.525000000
C     1.490000000    -4.639000000    -5.817000000
H     0.844000000    -5.273000000    -6.419000000
C     1.615000000    -3.261000000    -6.053000000
H     1.106000000    -2.781000000    -6.884000000
C     2.472000000    -2.529000000    -5.218000000
O     2.661000000    -1.151000000    -5.480000000
C     1.657000000    -0.243000000    -5.650000000
C     1.881000000     1.036000000    -6.139000000
H     2.844000000     1.323000000    -6.554000000
C     0.886000000     1.989000000    -6.131000000
O     1.136000000     3.252000000    -6.586000000
C     0.954000000     4.367000000    -5.746000000
C    -0.100000000     5.217000000    -6.003000000
H    -0.771000000     5.056000000    -6.843000000
C    -0.347000000     6.295000000    -5.172000000
H    -1.203000000     6.930000000    -5.388000000
C     0.548000000     6.589000000    -4.158000000
H     0.413000000     7.371000000    -3.414000000
C     1.584000000     5.630000000    -3.898000000
C     1.802000000     4.500000000    -4.685000000
H     2.554000000     3.747000000    -4.464000000
O     9.129000000     2.749000000     2.477000000
H     8.246000000     2.450000000     2.696000000
H     9.366000000     2.244000000     1.699000000
O     8.786000000     1.393000000     5.270000000
H     8.870000000     0.746000000     5.970000000
H     8.878000000     0.886000000     4.463000000
O     6.471000000     1.680000000     3.091000000
H     5.950000000     1.285000000     2.391000000
H     5.829000000     1.923000000     3.758000000
O     7.157000000     4.721000000     1.093000000
H     6.527000000     4.275000000     0.527000000
H     7.328000000     4.097000000     1.799000000
O     7.239000000     1.561000000    -3.602000000
H     6.396000000     1.133000000    -3.749000000
H     7.803000000     1.223000000    -4.298000000
O     4.703000000     0.459000000    -3.913000000
H     4.873000000    -0.264000000    -3.308000000
H     4.075000000     1.014000000    -3.451000000
O     5.759000000     2.875000000    -0.103000000
H     5.424000000     2.036000000     0.211000000
H     5.151000000     3.132000000    -0.797000000
O     7.722000000    -0.607000000    -0.022000000
H     7.935000000    -0.227000000     0.830000000
H     6.777000000    -0.755000000     0.011000000
O     7.421000000    -3.763000000     2.853000000
H     7.464000000    -3.729000000     1.897000000
H     6.617000000    -4.248000000     3.039000000
O     8.310000000     2.669000000    -1.061000000
H     7.485000000     2.660000000    -0.575000000
H     8.097000000     2.269000000    -1.903000000
O     9.641000000    -2.010000000    -1.121000000
H     9.446000000    -1.925000000    -2.055000000
H     8.937000000    -1.530000000    -0.685000000
O     6.058000000    -1.684000000    -2.512000000
H     6.460000000    -2.551000000    -2.480000000
H     5.826000000    -1.493000000    -1.603000000
O     8.275000000    -0.550000000     3.165000000
H     7.440000000    -0.083000000     3.205000000
H     8.031000000    -1.476000000     3.152000000
O    10.056000000     1.182000000     0.353000000
H     9.353000000     1.475000000    -0.227000000
H    10.424000000     0.415000000    -0.085000000
O     6.575000000    -3.345000000     0.422000000
H     6.949000000    -3.726000000    -0.373000000
H     6.114000000    -2.563000000     0.118000000
O     5.135000000     3.598000000    -4.105000000
H     4.616000000     3.357000000    -3.338000000
H     5.943000000     3.092000000    -4.017000000
O     7.577000000    -4.032000000    -2.304000000
H     8.400000000    -3.649000000    -2.607000000
H     7.490000000    -4.842000000    -2.807000000
O     3.486000000     2.896000000    -1.915000000
H     2.909000000     2.180000000    -2.183000000
H     2.928000000     3.470000000    -1.390000000
O     1.972000000     0.849000000    -2.902000000
H     2.138000000     0.273000000    -2.156000000
H     1.221000000     0.454000000    -3.347000000
