201
-1251.73515
C     2.504000000    -1.356000000     3.803000000
H     2.046000000    -2.245000000     3.377000000
C     1.711000000    -0.382000000     4.350000000
C     2.329000000     0.747000000     4.867000000
H     1.759000000     1.548000000     5.329000000
C     0.184000000    -0.440000000     4.233000000
O    -0.449000000    -1.611000000     4.763000000
H     0.058000000    -0.415000000     3.141000000
O    -0.430000000     0.763000000     4.736000000
C    -1.432000000     1.429000000     4.070000000
C    -1.046000000     2.524000000     3.344000000
H     0.003000000     2.794000000     3.442000000
C    -1.941000000     3.082000000     2.506000000
O    -1.398000000     4.139000000     1.811000000
C    -3.276000000     2.719000000     2.408000000
C    -4.218000000     3.464000000     1.520000000
H    -5.241000000     3.307000000     1.866000000
C    -4.056000000     3.034000000     0.065000000
C    -4.697000000     1.866000000    -0.448000000
H    -5.237000000     1.246000000     0.263000000
H    -4.009000000     4.533000000     1.595000000
C    -3.660000000     1.621000000     3.152000000
H    -4.674000000     1.245000000     3.042000000
C    -2.773000000     0.911000000     3.987000000
C    -3.185000000    -0.352000000     4.630000000
H    -4.273000000    -0.388000000     4.719000000
H    -2.848000000    -0.232000000     5.662000000
C    -2.721000000    -1.592000000     3.929000000
C    -3.619000000    -2.132000000     2.982000000
H    -4.616000000    -1.717000000     2.860000000
C    -1.423000000    -2.106000000     3.988000000
C    -1.126000000    -3.247000000     3.261000000
H    -0.125000000    -3.590000000     3.509000000
C    -1.976000000    -3.833000000     2.379000000
O    -1.505000000    -4.778000000     1.532000000
C    -1.047000000    -4.267000000     0.264000000
C     0.286000000    -4.894000000    -0.251000000
C     0.470000000    -5.095000000    -1.589000000
H    -0.186000000    -4.682000000    -2.351000000
C     1.302000000    -5.198000000     0.594000000
H     1.270000000    -4.935000000     1.648000000
O    -2.066000000    -4.471000000    -0.790000000
H    -0.899000000    -3.185000000     0.396000000
C    -3.296000000    -3.270000000     2.217000000
C    -4.183000000    -3.723000000     1.103000000
H    -5.253000000    -3.723000000     1.321000000
H    -3.936000000    -4.770000000     0.916000000
C    -3.830000000    -3.002000000    -0.251000000
C    -4.603000000    -1.883000000    -0.603000000
H    -5.442000000    -1.593000000     0.024000000
C    -2.869000000    -3.411000000    -1.177000000
C    -2.492000000    -2.648000000    -2.284000000
H    -1.678000000    -3.006000000    -2.910000000
C    -3.260000000    -1.544000000    -2.622000000
O    -2.885000000    -0.821000000    -3.726000000
C    -2.208000000     0.392000000    -3.468000000
C    -1.062000000     0.423000000    -4.478000000
C    -0.173000000    -0.622000000    -4.436000000
H    -0.417000000    -1.547000000    -3.920000000
C    -0.625000000     1.609000000    -5.127000000
H    -1.173000000     2.537000000    -4.985000000
O    -3.032000000     1.550000000    -3.683000000
H    -1.725000000     0.340000000    -2.482000000
C    -4.352000000    -1.158000000    -1.818000000
C    -5.117000000     0.079000000    -2.208000000
H    -6.109000000    -0.009000000    -1.760000000
H    -5.211000000     0.083000000    -3.296000000
C    -4.450000000     1.330000000    -1.691000000
C    -3.538000000     2.041000000    -2.534000000
C    -2.781000000     3.054000000    -2.024000000
H    -2.032000000     3.545000000    -2.639000000
C    -3.108000000     3.675000000    -0.810000000
O    -2.301000000     4.673000000    -0.239000000
C    -1.165000000     4.069000000     0.420000000
H    -1.003000000     3.025000000     0.113000000
C     0.183000000     4.694000000     0.116000000
C     1.245000000     4.712000000     1.039000000
H     1.058000000     4.341000000     2.044000000
C     0.444000000     5.150000000    -1.214000000
H    -0.328000000     5.292000000    -1.966000000
C     1.719000000     5.581000000    -1.582000000
O     2.024000000     5.911000000    -2.874000000
C     2.719000000     5.624000000    -0.632000000
H     3.746000000     5.873000000    -0.885000000
C     2.509000000     5.072000000     0.607000000
O     3.559000000     4.702000000     1.431000000
C     3.523000000     4.537000000     2.806000000
C     4.012000000     3.412000000     3.405000000
H     4.458000000     2.644000000     2.778000000
C     3.032000000     5.594000000     3.616000000
H     2.684000000     6.475000000     3.082000000
C     2.945000000     5.445000000     5.016000000
H     2.452000000     6.176000000     5.652000000
C     3.377000000     4.247000000     5.573000000
H     3.339000000     4.094000000     6.649000000
C     3.918000000     3.198000000     4.824000000
O     4.272000000     2.024000000     5.402000000
C     3.711000000     0.841000000     4.894000000
C     4.526000000    -0.155000000     4.363000000
H     5.608000000    -0.142000000     4.262000000
C     3.898000000    -1.243000000     3.676000000
O     4.679000000    -2.177000000     3.099000000
C     4.481000000    -3.542000000     3.182000000
C     3.964000000    -4.274000000     2.077000000
H     3.718000000    -3.698000000     1.188000000
C     4.809000000    -4.228000000     4.348000000
H     5.080000000    -3.730000000     5.276000000
C     4.686000000    -5.643000000     4.440000000
H     4.835000000    -6.238000000     5.337000000
C     4.189000000    -6.290000000     3.331000000
H     4.054000000    -7.364000000     3.236000000
C     3.801000000    -5.590000000     2.205000000
O     3.480000000    -6.330000000     1.064000000
C     2.478000000    -5.820000000     0.203000000
C     2.574000000    -6.159000000    -1.109000000
H     3.520000000    -6.638000000    -1.345000000
C     1.569000000    -5.828000000    -2.019000000
O     1.708000000    -6.068000000    -3.329000000
C     1.281000000    -5.206000000    -4.264000000
C     1.779000000    -3.941000000    -4.206000000
H     2.608000000    -3.621000000    -3.581000000
C     0.220000000    -5.516000000    -5.180000000
H    -0.157000000    -6.535000000    -5.206000000
C    -0.263000000    -4.530000000    -5.982000000
H    -1.032000000    -4.922000000    -6.643000000
C     0.335000000    -3.262000000    -6.010000000
H    -0.173000000    -2.530000000    -6.633000000
C     1.407000000    -2.982000000    -5.130000000
O     1.967000000    -1.676000000    -5.026000000
C     1.081000000    -0.589000000    -5.137000000
C     1.438000000     0.581000000    -5.808000000
H     2.299000000     0.607000000    -6.470000000
C     0.602000000     1.693000000    -5.801000000
O     0.999000000     2.828000000    -6.551000000
C     0.932000000     4.061000000    -5.928000000
C     0.529000000     5.150000000    -6.669000000
H     0.184000000     5.052000000    -7.695000000
C     0.634000000     6.431000000    -6.181000000
H     0.222000000     7.266000000    -6.740000000
C     1.070000000     6.656000000    -4.893000000
H     1.194000000     7.673000000    -4.530000000
C     1.382000000     5.591000000    -4.049000000
C     1.247000000     4.278000000    -4.585000000
H     1.454000000     3.439000000    -3.927000000
O     6.040000000    -5.363000000    -0.650000000
H     6.482000000    -6.062000000    -1.132000000
H     5.260000000    -5.780000000    -0.285000000
O     7.425000000     4.039000000     1.503000000
H     6.854000000     3.299000000     1.296000000
H     7.083000000     4.382000000     2.328000000
O     7.565000000     0.264000000     1.456000000
H     6.662000000     0.056000000     1.216000000
H     7.489000000     0.762000000     2.270000000
O     7.055000000     5.066000000    -1.051000000
H     7.053000000     4.145000000    -1.314000000
H     7.079000000     5.042000000    -0.095000000
O     4.618000000    -1.394000000    -4.102000000
H     4.529000000    -2.126000000    -3.492000000
H     3.743000000    -1.006000000    -4.139000000
O     5.345000000     2.468000000     0.238000000
H     5.510000000     1.554000000     0.471000000
H     5.434000000     2.492000000    -0.715000000
O     6.766000000    -0.183000000    -2.392000000
H     6.424000000    -0.552000000    -1.577000000
H     6.381000000    -0.724000000    -3.080000000
O     9.234000000    -3.228000000     2.222000000
H     8.486000000    -2.906000000     1.718000000
H     9.526000000    -4.006000000     1.747000000
O     7.727000000    -2.495000000     6.333000000
H     7.740000000    -2.294000000     5.397000000
H     8.175000000    -1.754000000     6.743000000
O     7.508000000     2.439000000    -1.634000000
H     7.298000000     1.508000000    -1.693000000
H     8.375000000     2.464000000    -1.228000000
O     4.730000000    -3.373000000    -2.149000000
H     5.362000000    -4.075000000    -1.994000000
H     4.811000000    -2.804000000    -1.383000000
O     9.388000000    -1.167000000    -1.500000000
H     8.854000000    -1.940000000    -1.317000000
H     8.753000000    -0.482000000    -1.712000000
O    10.846000000     0.709000000     1.616000000
H    10.138000000     0.123000000     1.349000000
H    10.453000000     1.581000000     1.602000000
O     7.420000000    -5.523000000     3.283000000
H     7.736000000    -5.872000000     2.449000000
H     6.522000000    -5.246000000     3.103000000
O     7.056000000    -2.874000000     0.588000000
H     6.465000000    -2.166000000     0.332000000
H     6.765000000    -3.627000000     0.073000000
O     7.435000000    -1.788000000     3.621000000
H     8.209000000    -1.943000000     3.080000000
H     6.697000000    -1.927000000     3.028000000
O     4.233000000     3.133000000    -3.378000000
H     3.446000000     2.640000000    -3.143000000
H     4.228000000     3.887000000    -2.789000000
O     6.817000000     1.738000000    -4.897000000
H     6.585000000     1.369000000    -5.749000000
H     5.986000000     2.043000000    -4.533000000
O     2.370000000     1.631000000    -2.046000000
H     1.708000000     1.974000000    -1.446000000
H     2.688000000     0.834000000    -1.621000000
