201
-1247.92063
C     2.141000000    -3.526000000     3.708000000
H     1.833000000    -4.495000000     3.323000000
C     1.262000000    -2.508000000     4.132000000
C     1.799000000    -1.345000000     4.722000000
H     1.137000000    -0.545000000     5.045000000
C    -0.222000000    -2.617000000     3.772000000
O    -0.750000000    -3.907000000     3.683000000
H    -0.183000000    -2.203000000     2.754000000
O    -1.117000000    -1.810000000     4.524000000
C    -2.026000000    -0.952000000     4.003000000
C    -1.748000000     0.392000000     4.004000000
H    -0.826000000     0.726000000     4.471000000
C    -2.574000000     1.274000000     3.313000000
O    -2.153000000     2.593000000     3.238000000
C    -3.776000000     0.786000000     2.764000000
C    -4.766000000     1.765000000     2.171000000
H    -5.750000000     1.303000000     2.281000000
C    -4.429000000     2.120000000     0.678000000
C    -4.762000000     1.284000000    -0.380000000
H    -5.442000000     0.446000000    -0.251000000
H    -4.774000000     2.642000000     2.821000000
C    -4.095000000    -0.566000000     2.836000000
H    -5.096000000    -0.862000000     2.531000000
C    -3.178000000    -1.441000000     3.515000000
C    -3.494000000    -2.914000000     3.491000000
H    -4.572000000    -2.970000000     3.322000000
H    -3.316000000    -3.478000000     4.409000000
C    -2.758000000    -3.654000000     2.387000000
C    -3.375000000    -3.613000000     1.140000000
H    -4.295000000    -3.051000000     0.999000000
C    -1.486000000    -4.197000000     2.543000000
C    -0.780000000    -4.608000000     1.414000000
H     0.282000000    -4.837000000     1.361000000
C    -1.370000000    -4.495000000     0.181000000
O    -0.548000000    -4.793000000    -0.839000000
C    -0.115000000    -3.732000000    -1.762000000
C     1.324000000    -3.953000000    -2.265000000
C     1.738000000    -3.432000000    -3.455000000
H     1.118000000    -2.821000000    -4.106000000
C     2.213000000    -4.699000000    -1.485000000
H     1.813000000    -5.093000000    -0.555000000
O    -0.976000000    -3.711000000    -2.888000000
H    -0.170000000    -2.763000000    -1.245000000
C    -2.694000000    -4.070000000     0.015000000
C    -3.445000000    -4.019000000    -1.334000000
H    -4.507000000    -4.164000000    -1.127000000
H    -3.240000000    -4.894000000    -1.954000000
C    -3.219000000    -2.782000000    -2.076000000
C    -4.013000000    -1.619000000    -2.002000000
H    -4.951000000    -1.645000000    -1.454000000
C    -2.009000000    -2.734000000    -2.924000000
C    -1.797000000    -1.574000000    -3.716000000
H    -0.828000000    -1.473000000    -4.198000000
C    -2.646000000    -0.506000000    -3.658000000
O    -2.198000000     0.683000000    -4.320000000
C    -1.834000000     1.819000000    -3.463000000
C    -0.548000000     2.564000000    -3.835000000
C     0.531000000     1.816000000    -4.318000000
H     0.449000000     0.757000000    -4.547000000
C    -0.420000000     3.909000000    -3.651000000
H    -1.291000000     4.482000000    -3.343000000
O    -2.913000000     2.760000000    -3.282000000
H    -1.582000000     1.349000000    -2.501000000
C    -3.781000000    -0.582000000    -2.897000000
C    -4.750000000     0.562000000    -2.875000000
H    -5.761000000     0.187000000    -2.704000000
H    -4.763000000     1.012000000    -3.870000000
C    -4.427000000     1.549000000    -1.721000000
C    -3.569000000     2.592000000    -2.029000000
C    -3.208000000     3.445000000    -0.950000000
H    -2.534000000     4.288000000    -1.076000000
C    -3.611000000     3.172000000     0.355000000
O    -2.939000000     3.801000000     1.377000000
C    -1.826000000     3.088000000     1.869000000
H    -1.601000000     2.203000000     1.256000000
C    -0.562000000     3.922000000     1.871000000
C     0.572000000     3.457000000     2.657000000
H     0.669000000     2.475000000     3.114000000
C    -0.484000000     5.133000000     1.171000000
H    -1.190000000     5.491000000     0.426000000
C     0.691000000     5.863000000     1.339000000
O     0.848000000     7.102000000     0.684000000
C     1.791000000     5.416000000     2.082000000
H     2.666000000     6.060000000     2.103000000
C     1.723000000     4.241000000     2.738000000
O     2.808000000     3.799000000     3.405000000
C     2.785000000     3.127000000     4.610000000
C     3.293000000     1.845000000     4.583000000
H     3.618000000     1.447000000     3.625000000
C     2.268000000     3.637000000     5.753000000
H     1.965000000     4.680000000     5.792000000
C     2.112000000     2.827000000     6.845000000
H     1.737000000     3.333000000     7.731000000
C     2.531000000     1.519000000     6.900000000
H     2.333000000     0.945000000     7.802000000
C     3.113000000     1.020000000     5.695000000
O     3.602000000    -0.215000000     5.715000000
C     3.071000000    -1.347000000     5.113000000
C     3.957000000    -2.285000000     4.651000000
H     4.995000000    -2.133000000     4.938000000
C     3.517000000    -3.415000000     3.966000000
O     4.452000000    -4.288000000     3.470000000
C     4.194000000    -5.247000000     2.534000000
C     4.322000000    -4.922000000     1.159000000
H     4.706000000    -3.936000000     0.908000000
C     3.622000000    -6.452000000     2.824000000
H     3.452000000    -6.748000000     3.856000000
C     3.215000000    -7.378000000     1.868000000
H     2.730000000    -8.319000000     2.111000000
C     3.490000000    -7.092000000     0.539000000
H     3.293000000    -7.831000000    -0.233000000
C     4.069000000    -5.891000000     0.172000000
O     4.422000000    -5.619000000    -1.145000000
C     3.514000000    -4.932000000    -1.942000000
C     3.959000000    -4.296000000    -3.112000000
H     4.963000000    -4.393000000    -3.518000000
C     3.064000000    -3.547000000    -3.861000000
O     3.467000000    -2.969000000    -4.953000000
C     2.991000000    -1.863000000    -5.567000000
C     3.157000000    -0.594000000    -5.009000000
H     3.709000000    -0.458000000    -4.083000000
C     2.215000000    -2.016000000    -6.711000000
H     1.961000000    -3.038000000    -6.981000000
C     1.746000000    -0.915000000    -7.372000000
H     1.051000000    -0.994000000    -8.204000000
C     1.996000000     0.313000000    -6.892000000
H     1.462000000     1.166000000    -7.303000000
C     2.632000000     0.462000000    -5.628000000
O     2.731000000     1.772000000    -5.068000000
C     1.671000000     2.486000000    -4.661000000
C     1.808000000     3.856000000    -4.528000000
H     2.687000000     4.345000000    -4.941000000
C     0.741000000     4.550000000    -4.034000000
O     0.827000000     5.943000000    -4.002000000
C     0.537000000     6.787000000    -2.936000000
C     0.082000000     8.030000000    -3.301000000
H    -0.127000000     8.339000000    -4.322000000
C    -0.201000000     8.946000000    -2.327000000
H    -0.599000000     9.875000000    -2.728000000
C    -0.015000000     8.644000000    -0.965000000
H    -0.330000000     9.343000000    -0.195000000
C     0.484000000     7.384000000    -0.644000000
C     0.654000000     6.403000000    -1.580000000
H     0.972000000     5.397000000    -1.317000000
O    10.682000000     0.932000000     0.439000000
H     9.756000000     0.774000000     0.622000000
H    10.755000000     0.853000000    -0.512000000
O     4.670000000     4.839000000     0.880000000
H     5.380000000     4.202000000     0.958000000
H     3.892000000     4.310000000     0.702000000
O     3.869000000     2.156000000    -2.491000000
H     4.784000000     2.078000000    -2.221000000
H     3.895000000     2.105000000    -3.446000000
O     7.654000000     0.649000000     0.747000000
H     7.245000000     1.433000000     1.113000000
H     6.922000000     0.060000000     0.566000000
O    10.007000000    -2.098000000    -1.705000000
H     9.887000000    -2.961000000    -2.102000000
H     9.831000000    -2.236000000    -0.775000000
O     6.945000000    -2.472000000    -1.140000000
H     7.118000000    -2.450000000    -2.081000000
H     6.454000000    -1.668000000    -0.968000000
O     2.865000000     2.794000000    -0.018000000
H     3.139000000     2.597000000    -0.914000000
H     2.619000000     1.946000000     0.350000000
O     9.054000000    -2.069000000     1.421000000
H     8.507000000    -2.337000000     2.159000000
H     8.571000000    -1.350000000     1.014000000
O     8.082000000    -4.659000000     0.165000000
H     7.738000000    -3.766000000     0.155000000
H     7.746000000    -5.054000000    -0.640000000
O     6.535000000     3.047000000     1.909000000
H     7.448000000     3.291000000     2.062000000
H     6.038000000     3.580000000     2.530000000
O    10.420000000    -4.552000000     1.530000000
H    10.264000000    -4.435000000     2.467000000
H     9.640000000    -4.187000000     1.111000000
O     7.357000000     1.330000000     6.141000000
H     7.537000000     2.222000000     5.844000000
H     7.073000000     0.867000000     5.352000000
O     8.217000000    -0.272000000    -3.305000000
H     8.803000000    -0.750000000    -2.718000000
H     8.788000000     0.048000000    -4.003000000
O     9.979000000    -0.046000000     4.084000000
H    10.615000000    -0.627000000     4.502000000
H     9.195000000    -0.585000000     3.980000000
O     6.582000000    -2.989000000     2.524000000
H     6.045000000    -2.259000000     2.216000000
H     6.033000000    -3.762000000     2.395000000
O     7.774000000    -2.497000000     4.793000000
H     7.391000000    -2.699000000     3.939000000
H     7.999000000    -3.352000000     5.161000000
O     5.983000000     0.262000000     4.030000000
H     5.786000000     0.057000000     3.116000000
H     5.215000000    -0.041000000     4.514000000
O     7.435000000     3.748000000    -2.920000000
H     6.971000000     3.087000000    -2.406000000
H     8.282000000     3.839000000    -2.482000000
O     6.555000000     1.320000000    -1.874000000
H     6.241000000     0.665000000    -1.251000000
H     7.203000000     0.855000000    -2.404000000
