201
-1262.90317
C     3.573000000    -3.190000000     1.881000000
H     3.252000000    -4.027000000     1.267000000
C     2.747000000    -2.583000000     2.849000000
C     3.322000000    -1.599000000     3.680000000
H     2.637000000    -1.004000000     4.280000000
C     1.256000000    -2.850000000     2.915000000
O     0.897000000    -4.161000000     2.349000000
H     0.811000000    -2.066000000     2.285000000
O     0.703000000    -2.653000000     4.192000000
C    -0.471000000    -1.871000000     4.142000000
C    -0.303000000    -0.512000000     4.369000000
H     0.719000000    -0.174000000     4.520000000
C    -1.413000000     0.288000000     4.299000000
O    -1.211000000     1.636000000     4.425000000
C    -2.707000000    -0.285000000     4.076000000
C    -3.852000000     0.690000000     3.854000000
H    -4.854000000     0.315000000     4.074000000
C    -3.871000000     1.268000000     2.485000000
C    -4.651000000     0.587000000     1.568000000
H    -5.155000000    -0.328000000     1.870000000
H    -3.797000000     1.463000000     4.624000000
C    -2.860000000    -1.615000000     3.857000000
H    -3.834000000    -2.050000000     3.644000000
C    -1.716000000    -2.463000000     3.920000000
C    -1.842000000    -3.991000000     3.478000000
H    -2.868000000    -4.282000000     3.712000000
H    -1.170000000    -4.552000000     4.131000000
C    -1.545000000    -4.206000000     1.928000000
C    -2.593000000    -4.314000000     1.026000000
H    -3.618000000    -4.323000000     1.388000000
C    -0.205000000    -4.214000000     1.523000000
C     0.051000000    -4.418000000     0.147000000
H     1.081000000    -4.451000000    -0.200000000
C    -1.004000000    -4.567000000    -0.772000000
O    -0.770000000    -4.617000000    -2.160000000
C    -0.861000000    -3.344000000    -2.822000000
C     0.371000000    -3.082000000    -3.750000000
C     0.236000000    -2.643000000    -5.051000000
H    -0.688000000    -2.530000000    -5.613000000
C     1.673000000    -3.336000000    -3.252000000
H     1.752000000    -3.643000000    -2.212000000
O    -2.048000000    -3.329000000    -3.604000000
H    -0.926000000    -2.551000000    -2.063000000
C    -2.356000000    -4.484000000    -0.310000000
C    -3.541000000    -4.451000000    -1.335000000
H    -4.409000000    -4.987000000    -0.945000000
H    -3.236000000    -5.050000000    -2.196000000
C    -3.748000000    -3.052000000    -1.825000000
C    -4.460000000    -2.055000000    -1.003000000
H    -4.926000000    -2.425000000    -0.094000000
C    -3.028000000    -2.629000000    -2.974000000
C    -3.173000000    -1.330000000    -3.424000000
H    -2.755000000    -0.963000000    -4.358000000
C    -3.900000000    -0.356000000    -2.695000000
O    -3.786000000     1.007000000    -3.097000000
C    -2.883000000     1.824000000    -2.279000000
C    -1.960000000     2.718000000    -3.064000000
C    -1.370000000     2.300000000    -4.286000000
H    -1.714000000     1.392000000    -4.774000000
C    -1.520000000     3.885000000    -2.490000000
H    -2.073000000     4.290000000    -1.647000000
O    -3.757000000     2.558000000    -1.453000000
H    -2.264000000     1.120000000    -1.703000000
C    -4.440000000    -0.729000000    -1.429000000
C    -5.360000000     0.192000000    -0.740000000
H    -6.151000000    -0.331000000    -0.198000000
H    -5.833000000     0.900000000    -1.424000000
C    -4.530000000     0.993000000     0.246000000
C    -3.825000000     2.128000000    -0.163000000
C    -3.238000000     2.926000000     0.828000000
H    -2.702000000     3.862000000     0.696000000
C    -3.280000000     2.478000000     2.213000000
O    -2.432000000     3.120000000     3.123000000
C    -1.151000000     2.429000000     3.234000000
H    -0.983000000     1.848000000     2.315000000
C     0.044000000     3.401000000     3.385000000
C     1.197000000     3.138000000     4.026000000
H     1.317000000     2.230000000     4.611000000
C    -0.081000000     4.670000000     2.795000000
H    -1.009000000     4.943000000     2.299000000
C     0.917000000     5.675000000     2.856000000
O     0.610000000     6.869000000     2.320000000
C     2.051000000     5.401000000     3.548000000
H     2.763000000     6.195000000     3.761000000
C     2.212000000     4.174000000     4.156000000
O     3.367000000     3.971000000     4.946000000
C     3.732000000     2.807000000     5.503000000
C     4.256000000     1.779000000     4.681000000
H     4.379000000     1.922000000     3.611000000
C     3.541000000     2.520000000     6.846000000
H     3.222000000     3.256000000     7.579000000
C     3.897000000     1.319000000     7.399000000
H     3.911000000     1.181000000     8.477000000
C     4.546000000     0.367000000     6.540000000
H     5.013000000    -0.513000000     6.975000000
C     4.665000000     0.595000000     5.211000000
O     5.263000000    -0.413000000     4.461000000
C     4.670000000    -1.346000000     3.645000000
C     5.495000000    -2.057000000     2.751000000
H     6.556000000    -1.823000000     2.746000000
C     4.931000000    -2.927000000     1.881000000
O     5.759000000    -3.402000000     0.947000000
C     5.333000000    -4.057000000    -0.141000000
C     4.761000000    -3.422000000    -1.189000000
H     4.701000000    -2.337000000    -1.176000000
C     5.452000000    -5.472000000    -0.198000000
H     5.901000000    -5.958000000     0.664000000
C     4.985000000    -6.091000000    -1.374000000
H     5.093000000    -7.168000000    -1.471000000
C     4.459000000    -5.401000000    -2.411000000
H     4.159000000    -5.880000000    -3.339000000
C     4.436000000    -4.063000000    -2.332000000
O     4.097000000    -3.398000000    -3.537000000
C     2.829000000    -3.015000000    -3.992000000
C     2.655000000    -2.557000000    -5.282000000
H     3.481000000    -2.207000000    -5.895000000
C     1.360000000    -2.379000000    -5.836000000
O     1.251000000    -1.963000000    -7.123000000
C     0.565000000    -0.735000000    -7.380000000
C     0.835000000     0.342000000    -6.553000000
H     1.650000000     0.320000000    -5.835000000
C    -0.432000000    -0.675000000    -8.354000000
H    -0.705000000    -1.540000000    -8.953000000
C    -1.190000000     0.472000000    -8.482000000
H    -1.981000000     0.458000000    -9.228000000
C    -0.947000000     1.589000000    -7.677000000
H    -1.410000000     2.566000000    -7.782000000
C     0.122000000     1.499000000    -6.737000000
O     0.409000000     2.626000000    -5.925000000
C    -0.314000000     3.106000000    -4.785000000
C     0.088000000     4.282000000    -4.167000000
H     0.920000000     4.871000000    -4.546000000
C    -0.455000000     4.667000000    -2.969000000
O     0.143000000     5.728000000    -2.338000000
C    -0.348000000     6.321000000    -1.194000000
C    -1.496000000     7.132000000    -1.295000000
H    -2.011000000     7.261000000    -2.244000000
C    -1.839000000     7.889000000    -0.223000000
H    -2.777000000     8.420000000    -0.359000000
C    -1.054000000     7.860000000     0.953000000
H    -1.274000000     8.535000000     1.776000000
C     0.035000000     6.976000000     1.058000000
C     0.465000000     6.252000000    -0.058000000
H     1.383000000     5.672000000    -0.016000000
O     6.074000000     6.706000000    -5.077000000
H     5.124000000     6.724000000    -5.194000000
H     6.201000000     6.325000000    -4.208000000
O     5.279000000     6.920000000     0.217000000
H     4.841000000     7.729000000    -0.049000000
H     5.499000000     6.485000000    -0.606000000
O     5.321000000     4.084000000    -7.015000000
H     6.002000000     4.271000000    -6.369000000
H     4.642000000     3.624000000    -6.521000000
O     7.096000000     2.849000000     3.157000000
H     7.955000000     2.452000000     3.012000000
H     6.491000000     2.299000000     2.658000000
O     7.271000000     4.867000000     1.208000000
H     7.342000000     4.623000000     2.131000000
H     6.340000000     5.044000000     1.077000000
O     2.326000000     7.323000000    -3.860000000
H     3.110000000     7.728000000    -3.489000000
H     2.636000000     6.883000000    -4.652000000
O     6.995000000    -2.396000000    -3.748000000
H     7.404000000    -1.897000000    -4.455000000
H     6.372000000    -2.973000000    -4.190000000
O     5.145000000     4.870000000    -1.664000000
H     4.555000000     4.920000000    -2.416000000
H     5.061000000     3.969000000    -1.353000000
O     6.154000000     1.078000000    -3.383000000
H     5.361000000     1.603000000    -3.277000000
H     6.168000000     0.849000000    -4.312000000
O     5.656000000     1.065000000     1.308000000
H     5.344000000     1.485000000     0.507000000
H     5.661000000     0.130000000     1.102000000
O     3.733000000     0.975000000    -7.373000000
H     3.680000000     1.762000000    -6.831000000
H     3.289000000     1.214000000    -8.187000000
O     7.121000000     2.846000000    -0.724000000
H     6.216000000     2.534000000    -0.724000000
H     7.171000000     3.437000000     0.027000000
O     6.839000000    -0.854000000    -1.494000000
H     6.380000000    -0.050000000    -1.737000000
H     6.893000000    -1.355000000    -2.308000000
O     6.104000000     0.343000000    -6.142000000
H     6.191000000    -0.558000000    -6.454000000
H     5.326000000     0.677000000    -6.588000000
O     8.919000000     0.001000000    -3.643000000
H     8.051000000     0.124000000    -3.260000000
H     8.838000000     0.342000000    -4.534000000
O     7.907000000     4.811000000    -2.859000000
H     7.448000000     4.242000000    -2.242000000
H     8.232000000     5.534000000    -2.322000000
O     7.178000000     3.922000000    -5.198000000
H     7.955000000     3.364000000    -5.176000000
H     7.218000000     4.421000000    -4.382000000
O     9.786000000     1.983000000    -1.722000000
H     9.360000000     1.425000000    -2.373000000
H     9.075000000     2.266000000    -1.147000000
O     3.046000000     2.797000000    -5.294000000
H     3.263000000     2.579000000    -4.388000000
H     2.094000000     2.900000000    -5.294000000
