201
-1244.61822
C     3.797000000    -3.197000000     0.979000000
H     3.466000000    -3.610000000     0.030000000
C     2.858000000    -3.246000000     2.025000000
C     3.271000000    -2.714000000     3.278000000
H     2.502000000    -2.488000000     4.011000000
C     1.337000000    -3.494000000     1.721000000
O     1.154000000    -4.685000000     0.897000000
H     0.918000000    -2.605000000     1.227000000
O     0.612000000    -3.713000000     2.996000000
C    -0.555000000    -3.117000000     3.165000000
C    -0.600000000    -1.861000000     3.872000000
H     0.254000000    -1.471000000     4.419000000
C    -1.775000000    -1.167000000     3.843000000
O    -1.795000000     0.091000000     4.428000000
C    -2.929000000    -1.690000000     3.234000000
C    -4.286000000    -0.918000000     3.259000000
H    -5.165000000    -1.563000000     3.201000000
C    -4.259000000     0.010000000     2.067000000
C    -4.818000000    -0.385000000     0.846000000
H    -5.167000000    -1.409000000     0.742000000
H    -4.345000000    -0.376000000     4.206000000
C    -2.919000000    -2.914000000     2.583000000
H    -3.835000000    -3.173000000     2.057000000
C    -1.733000000    -3.621000000     2.582000000
C    -1.677000000    -4.873000000     1.782000000
H    -2.689000000    -5.272000000     1.694000000
H    -1.075000000    -5.658000000     2.245000000
C    -1.217000000    -4.641000000     0.344000000
C    -2.133000000    -4.347000000    -0.628000000
H    -3.170000000    -4.209000000    -0.332000000
C     0.146000000    -4.665000000    -0.044000000
C     0.555000000    -4.371000000    -1.308000000
H     1.617000000    -4.425000000    -1.535000000
C    -0.425000000    -4.301000000    -2.342000000
O    -0.034000000    -3.951000000    -3.582000000
C    -0.065000000    -2.490000000    -3.884000000
C     1.344000000    -1.968000000    -4.319000000
C     1.420000000    -0.618000000    -4.686000000
H     0.470000000    -0.089000000    -4.721000000
C     2.608000000    -2.691000000    -4.245000000
H     2.709000000    -3.759000000    -4.070000000
O    -1.181000000    -2.057000000    -4.740000000
H    -0.248000000    -1.947000000    -2.945000000
C    -1.779000000    -4.170000000    -2.002000000
C    -2.848000000    -3.957000000    -3.097000000
H    -3.781000000    -4.461000000    -2.835000000
H    -2.581000000    -4.290000000    -4.102000000
C    -3.038000000    -2.472000000    -3.195000000
C    -4.030000000    -1.881000000    -2.427000000
H    -4.678000000    -2.527000000    -1.841000000
C    -2.274000000    -1.634000000    -4.024000000
C    -2.470000000    -0.203000000    -4.043000000
H    -1.864000000     0.482000000    -4.631000000
C    -3.395000000     0.344000000    -3.159000000
O    -3.428000000     1.779000000    -3.094000000
C    -3.077000000     2.483000000    -1.867000000
C    -2.427000000     3.819000000    -2.242000000
C    -1.474000000     3.926000000    -3.249000000
H    -1.124000000     3.060000000    -3.805000000
C    -2.552000000     4.925000000    -1.370000000
H    -3.105000000     4.765000000    -0.447000000
O    -4.305000000     2.688000000    -1.112000000
H    -2.254000000     1.996000000    -1.325000000
C    -4.243000000    -0.530000000    -2.460000000
C    -5.378000000     0.067000000    -1.623000000
H    -6.221000000    -0.624000000    -1.691000000
H    -5.779000000     0.922000000    -2.171000000
C    -4.840000000     0.485000000    -0.226000000
C    -4.408000000     1.834000000    -0.008000000
C    -3.844000000     2.169000000     1.241000000
H    -3.390000000     3.157000000     1.256000000
C    -3.661000000     1.223000000     2.200000000
O    -2.887000000     1.620000000     3.283000000
C    -1.560000000     1.146000000     3.534000000
H    -1.011000000     0.788000000     2.650000000
C    -0.676000000     2.195000000     4.093000000
C     0.445000000     1.817000000     4.856000000
H     0.490000000     0.775000000     5.162000000
C    -0.673000000     3.483000000     3.671000000
H    -1.605000000     3.757000000     3.183000000
C     0.319000000     4.458000000     4.015000000
O     0.292000000     5.744000000     3.430000000
C     1.412000000     4.041000000     4.761000000
H     2.185000000     4.777000000     4.966000000
C     1.469000000     2.710000000     5.177000000
O     2.641000000     2.317000000     5.806000000
C     3.015000000     1.027000000     6.045000000
C     3.932000000     0.292000000     5.279000000
H     4.403000000     0.718000000     4.396000000
C     2.405000000     0.416000000     7.123000000
H     1.820000000     1.033000000     7.800000000
C     2.534000000    -0.908000000     7.404000000
H     2.082000000    -1.464000000     8.222000000
C     3.289000000    -1.680000000     6.539000000
H     3.382000000    -2.757000000     6.657000000
C     4.125000000    -1.066000000     5.605000000
O     4.955000000    -1.868000000     4.763000000
C     4.574000000    -2.465000000     3.616000000
C     5.539000000    -2.598000000     2.607000000
H     6.582000000    -2.338000000     2.767000000
C     5.106000000    -2.952000000     1.276000000
O     6.072000000    -2.946000000     0.301000000
C     5.895000000    -3.559000000    -0.896000000
C     5.360000000    -2.860000000    -1.956000000
H     4.914000000    -1.882000000    -1.792000000
C     6.525000000    -4.807000000    -1.080000000
H     6.997000000    -5.294000000    -0.230000000
C     6.338000000    -5.396000000    -2.326000000
H     6.795000000    -6.381000000    -2.380000000
C     5.884000000    -4.690000000    -3.430000000
H     5.873000000    -5.086000000    -4.442000000
C     5.439000000    -3.416000000    -3.206000000
O     5.055000000    -2.652000000    -4.273000000
C     3.837000000    -2.022000000    -4.320000000
C     3.808000000    -0.664000000    -4.688000000
H     4.767000000    -0.163000000    -4.785000000
C     2.656000000     0.043000000    -4.916000000
O     2.823000000     1.389000000    -5.218000000
C     1.772000000     2.148000000    -5.735000000
C     1.581000000     3.382000000    -5.083000000
H     2.088000000     3.669000000    -4.164000000
C     0.954000000     1.731000000    -6.778000000
H     1.064000000     0.775000000    -7.285000000
C    -0.036000000     2.558000000    -7.189000000
H    -0.710000000     2.293000000    -7.999000000
C    -0.378000000     3.683000000    -6.448000000
H    -1.164000000     4.354000000    -6.786000000
C     0.445000000     4.146000000    -5.388000000
O     0.085000000     5.211000000    -4.563000000
C    -0.794000000     5.125000000    -3.491000000
C    -1.009000000     6.270000000    -2.677000000
H    -0.530000000     7.225000000    -2.875000000
C    -1.795000000     6.100000000    -1.541000000
O    -1.964000000     7.078000000    -0.606000000
C    -1.996000000     6.887000000     0.739000000
C    -3.159000000     7.130000000     1.460000000
H    -4.028000000     7.400000000     0.865000000
C    -3.149000000     6.968000000     2.882000000
H    -4.036000000     7.233000000     3.452000000
C    -1.976000000     6.587000000     3.533000000
H    -2.002000000     6.459000000     4.612000000
C    -0.845000000     6.269000000     2.818000000
C    -0.816000000     6.566000000     1.412000000
H     0.063000000     6.395000000     0.796000000
O     5.712000000     2.863000000    -2.672000000
H     5.729000000     2.181000000    -2.001000000
H     5.706000000     3.684000000    -2.180000000
O     7.567000000     2.040000000    -4.946000000
H     8.408000000     1.618000000    -5.120000000
H     7.318000000     1.730000000    -4.076000000
O    11.308000000     0.304000000    -0.492000000
H    10.611000000    -0.301000000    -0.747000000
H    11.853000000     0.385000000    -1.275000000
O     5.859000000     4.759000000    -0.572000000
H     6.426000000     5.350000000    -0.077000000
H     5.559000000     4.118000000     0.074000000
O     4.780000000     3.368000000    -5.220000000
H     4.049000000     2.763000000    -5.347000000
H     5.129000000     3.145000000    -4.357000000
O     9.977000000    -1.216000000     3.478000000
H     9.459000000    -1.058000000     2.688000000
H    10.884000000    -1.097000000     3.197000000
O     8.576000000    -1.772000000    -4.973000000
H     7.941000000    -1.739000000    -4.257000000
H     9.138000000    -1.011000000    -4.830000000
O     7.843000000     4.132000000     2.076000000
H     8.554000000     3.660000000     1.643000000
H     8.084000000     4.131000000     3.002000000
O     0.975000000     3.133000000    -0.084000000
H     1.369000000     3.117000000    -0.956000000
H     1.297000000     2.338000000     0.340000000
O     3.163000000     5.224000000     1.941000000
H     2.767000000     4.356000000     2.010000000
H     3.962000000     5.083000000     1.433000000
O     7.129000000     0.533000000     3.081000000
H     6.400000000     0.499000000     2.462000000
H     7.838000000     0.952000000     2.594000000
O    10.034000000    -1.687000000    -2.024000000
H    10.377000000    -1.333000000    -2.844000000
H     9.291000000    -2.229000000    -2.290000000
O    10.245000000     2.631000000     1.404000000
H    10.133000000     1.823000000     0.903000000
H    10.846000000     2.393000000     2.110000000
O     8.124000000     0.815000000     0.405000000
H     7.182000000     0.702000000     0.531000000
H     8.225000000     1.737000000     0.170000000
O     7.800000000     0.567000000     5.943000000
H     7.384000000     0.547000000     5.081000000
H     8.068000000    -0.338000000     6.100000000
O     7.476000000    -0.197000000    -2.422000000
H     8.069000000     0.363000000    -1.921000000
H     6.611000000    -0.024000000    -2.051000000
O     8.650000000     3.285000000    -0.963000000
H     9.143000000     4.098000000    -1.076000000
H     7.930000000     3.352000000    -1.590000000
O     5.206000000     3.160000000     1.695000000
H     6.119000000     3.298000000     1.945000000
H     5.151000000     2.227000000     1.489000000
O     8.664000000    -1.758000000     1.001000000
H     8.394000000    -0.904000000     0.662000000
H     7.847000000    -2.245000000     1.102000000
