201
-1251.19577
C     2.992000000    -3.835000000     2.168000000
H     2.709000000    -4.589000000     1.438000000
C     1.890000000    -3.102000000     2.686000000
C     2.137000000    -2.104000000     3.605000000
H     1.313000000    -1.519000000     4.005000000
C     0.473000000    -3.288000000     2.198000000
O     0.264000000    -4.630000000     1.664000000
H     0.188000000    -2.440000000     1.558000000
O    -0.463000000    -3.352000000     3.291000000
C    -1.764000000    -2.785000000     3.103000000
C    -1.840000000    -1.529000000     3.640000000
H    -1.053000000    -1.000000000     4.170000000
C    -2.965000000    -0.771000000     3.465000000
O    -3.046000000     0.496000000     3.958000000
C    -4.043000000    -1.302000000     2.732000000
C    -5.147000000    -0.304000000     2.345000000
H    -6.057000000    -0.824000000     2.039000000
C    -4.852000000     0.763000000     1.218000000
C    -4.996000000     0.324000000    -0.125000000
H    -5.481000000    -0.623000000    -0.344000000
H    -5.451000000     0.227000000     3.250000000
C    -3.935000000    -2.575000000     2.156000000
H    -4.689000000    -2.955000000     1.472000000
C    -2.818000000    -3.355000000     2.423000000
C    -2.626000000    -4.676000000     1.749000000
H    -3.613000000    -5.072000000     1.500000000
H    -2.180000000    -5.385000000     2.450000000
C    -1.892000000    -4.512000000     0.480000000
C    -2.558000000    -4.268000000    -0.721000000
H    -3.628000000    -4.096000000    -0.636000000
C    -0.511000000    -4.642000000     0.510000000
C     0.219000000    -4.514000000    -0.682000000
H     1.290000000    -4.684000000    -0.751000000
C    -0.430000000    -4.239000000    -1.848000000
O     0.284000000    -3.904000000    -2.990000000
C     0.527000000    -2.493000000    -3.274000000
C     1.937000000    -2.124000000    -3.748000000
C     2.218000000    -1.307000000    -4.816000000
H     1.450000000    -1.101000000    -5.558000000
C     3.006000000    -2.755000000    -3.002000000
H     2.793000000    -3.601000000    -2.353000000
O    -0.377000000    -2.158000000    -4.344000000
H     0.277000000    -1.876000000    -2.398000000
C    -1.840000000    -4.117000000    -1.850000000
C    -2.545000000    -3.708000000    -3.111000000
H    -3.589000000    -4.030000000    -3.108000000
H    -2.291000000    -4.301000000    -3.992000000
C    -2.603000000    -2.175000000    -3.437000000
C    -3.677000000    -1.388000000    -3.009000000
H    -4.477000000    -1.818000000    -2.412000000
C    -1.567000000    -1.483000000    -4.115000000
C    -1.500000000    -0.107000000    -4.181000000
H    -0.713000000     0.435000000    -4.699000000
C    -2.523000000     0.645000000    -3.656000000
O    -2.465000000     2.008000000    -3.764000000
C    -2.171000000     2.584000000    -2.493000000
C    -1.058000000     3.622000000    -2.700000000
C    -0.017000000     3.408000000    -3.645000000
H     0.153000000     2.474000000    -4.175000000
C    -0.968000000     4.698000000    -1.871000000
H    -1.738000000     4.810000000    -1.112000000
O    -3.364000000     3.167000000    -1.876000000
H    -1.768000000     1.772000000    -1.870000000
C    -3.696000000     0.006000000    -3.186000000
C    -4.867000000     0.781000000    -2.625000000
H    -5.774000000     0.176000000    -2.560000000
H    -5.115000000     1.613000000    -3.288000000
C    -4.572000000     1.183000000    -1.194000000
C    -4.009000000     2.412000000    -0.926000000
C    -3.825000000     2.786000000     0.362000000
H    -3.283000000     3.695000000     0.611000000
C    -4.185000000     1.976000000     1.470000000
O    -3.648000000     2.362000000     2.734000000
C    -2.545000000     1.527000000     3.097000000
H    -2.166000000     1.082000000     2.166000000
C    -1.493000000     2.367000000     3.799000000
C    -0.811000000     1.947000000     4.917000000
H    -1.027000000     0.991000000     5.387000000
C    -1.107000000     3.581000000     3.202000000
H    -1.520000000     3.943000000     2.264000000
C    -0.138000000     4.456000000     3.807000000
O     0.353000000     5.613000000     3.207000000
C     0.407000000     4.005000000     4.996000000
H     1.106000000     4.694000000     5.464000000
C     0.102000000     2.745000000     5.554000000
O     0.690000000     2.335000000     6.703000000
C     1.254000000     1.110000000     6.822000000
C     2.167000000     0.666000000     5.884000000
H     2.400000000     1.369000000     5.088000000
C     1.177000000     0.377000000     8.021000000
H     0.505000000     0.663000000     8.826000000
C     1.887000000    -0.845000000     8.149000000
H     1.767000000    -1.365000000     9.096000000
C     2.672000000    -1.317000000     7.094000000
H     3.161000000    -2.286000000     7.032000000
C     2.842000000    -0.538000000     5.943000000
O     3.764000000    -0.961000000     5.017000000
C     3.456000000    -1.864000000     3.993000000
C     4.550000000    -2.568000000     3.482000000
H     5.548000000    -2.339000000     3.844000000
C     4.277000000    -3.515000000     2.511000000
O     5.299000000    -4.360000000     2.078000000
C     5.413000000    -4.565000000     0.734000000
C     5.235000000    -3.495000000    -0.183000000
H     5.071000000    -2.494000000     0.208000000
C     5.668000000    -5.872000000     0.269000000
H     5.839000000    -6.724000000     0.923000000
C     5.849000000    -5.991000000    -1.098000000
H     6.028000000    -7.003000000    -1.453000000
C     5.725000000    -4.953000000    -1.978000000
H     5.788000000    -5.105000000    -3.052000000
C     5.411000000    -3.690000000    -1.501000000
O     5.346000000    -2.659000000    -2.456000000
C     4.266000000    -2.255000000    -3.251000000
C     4.514000000    -1.327000000    -4.247000000
H     5.525000000    -1.108000000    -4.581000000
C     3.504000000    -0.865000000    -5.061000000
O     3.601000000    -0.011000000    -6.155000000
C     2.928000000     1.083000000    -6.407000000
C     3.056000000     2.173000000    -5.539000000
H     3.609000000     2.103000000    -4.605000000
C     1.945000000     1.091000000    -7.390000000
H     1.829000000     0.216000000    -8.024000000
C     1.223000000     2.256000000    -7.611000000
H     0.493000000     2.450000000    -8.393000000
C     1.343000000     3.294000000    -6.705000000
H     0.748000000     4.185000000    -6.888000000
C     2.204000000     3.215000000    -5.634000000
O     2.105000000     4.197000000    -4.584000000
C     0.978000000     4.336000000    -3.786000000
C     0.869000000     5.552000000    -3.091000000
H     1.586000000     6.343000000    -3.294000000
C    -0.138000000     5.724000000    -2.177000000
O     0.025000000     6.820000000    -1.365000000
C    -0.482000000     6.937000000    -0.056000000
C    -1.698000000     7.612000000     0.189000000
H    -2.234000000     8.158000000    -0.584000000
C    -2.176000000     7.664000000     1.535000000
H    -3.136000000     8.103000000     1.795000000
C    -1.494000000     7.007000000     2.559000000
H    -1.838000000     6.947000000     3.588000000
C    -0.299000000     6.296000000     2.221000000
C     0.213000000     6.227000000     0.887000000
H     1.130000000     5.654000000     0.774000000
O     7.307000000     2.350000000    -6.466000000
H     7.403000000     1.445000000    -6.761000000
H     6.774000000     2.289000000    -5.673000000
O     9.672000000     3.150000000     1.452000000
H     9.016000000     2.708000000     0.912000000
H     9.161000000     3.636000000     2.099000000
O     7.738000000     3.905000000     3.528000000
H     6.845000000     3.561000000     3.557000000
H     7.673000000     4.773000000     3.927000000
O     8.391000000    -4.356000000     2.168000000
H     7.499000000    -4.228000000     1.844000000
H     8.675000000    -5.179000000     1.769000000
O     2.135000000     3.507000000    -0.323000000
H     1.714000000     3.099000000    -1.079000000
H     2.295000000     4.411000000    -0.597000000
O     5.944000000     0.950000000     5.487000000
H     5.559000000     1.753000000     5.137000000
H     6.047000000     0.381000000     4.724000000
O     2.560000000     3.339000000     2.546000000
H     2.143000000     2.906000000     1.801000000
H     1.906000000     3.968000000     2.854000000
O     8.602000000    -2.265000000     3.703000000
H     8.785000000    -1.395000000     3.350000000
H     8.363000000    -2.789000000     2.939000000
O     6.185000000     0.789000000     2.421000000
H     5.849000000     0.659000000     1.534000000
H     7.118000000     0.586000000     2.357000000
O     4.740000000     3.751000000     0.118000000
H     3.867000000     3.369000000     0.027000000
H     4.886000000     3.792000000     1.063000000
O     8.540000000    -0.164000000     1.159000000
H     7.828000000    -0.350000000     0.547000000
H     9.303000000    -0.014000000     0.601000000
O     9.810000000     0.519000000    -1.247000000
H     9.230000000     1.252000000    -1.454000000
H     9.336000000    -0.254000000    -1.553000000
O     6.738000000     2.326000000    -3.744000000
H     6.353000000     1.686000000    -3.145000000
H     7.532000000     2.623000000    -3.299000000
O     7.539000000     2.298000000    -0.352000000
H     7.047000000     1.487000000    -0.481000000
H     6.881000000     2.990000000    -0.413000000
O     8.611000000    -2.365000000    -3.919000000
H     8.408000000    -1.836000000    -3.148000000
H     7.825000000    -2.310000000    -4.462000000
O     5.173000000     2.990000000     3.427000000
H     5.398000000     2.162000000     3.003000000
H     4.274000000     3.165000000     3.149000000
O     4.926000000     4.606000000    -3.116000000
H     4.346000000     4.773000000    -2.373000000
H     5.354000000     3.777000000    -2.903000000
O     9.711000000     4.361000000    -2.104000000
H     9.404000000     4.415000000    -1.199000000
H     9.605000000     5.249000000    -2.447000000
O     7.919000000    -1.560000000    -1.421000000
H     8.214000000    -2.094000000    -0.683000000
H     7.030000000    -1.295000000    -1.185000000
