201
-1225.43565
C     4.054000000    -3.343000000     1.335000000
H     4.032000000    -3.626000000     0.286000000
C     2.908000000    -3.561000000     2.153000000
C     2.942000000    -3.298000000     3.529000000
H     2.073000000    -3.466000000     4.159000000
C     1.616000000    -3.886000000     1.423000000
O     1.799000000    -4.781000000     0.292000000
H     1.169000000    -2.931000000     1.107000000
O     0.664000000    -4.369000000     2.399000000
C    -0.650000000    -3.891000000     2.245000000
C    -1.012000000    -2.760000000     3.051000000
H    -0.322000000    -2.190000000     3.668000000
C    -2.300000000    -2.361000000     3.017000000
O    -2.617000000    -1.226000000     3.801000000
C    -3.238000000    -2.870000000     2.172000000
C    -4.645000000    -2.204000000     2.034000000
H    -5.442000000    -2.884000000     1.725000000
C    -4.561000000    -0.953000000     1.099000000
C    -4.820000000    -1.065000000    -0.233000000
H    -4.932000000    -2.088000000    -0.582000000
H    -4.886000000    -1.995000000     3.078000000
C    -2.842000000    -3.993000000     1.352000000
H    -3.591000000    -4.472000000     0.726000000
C    -1.542000000    -4.420000000     1.305000000
C    -1.108000000    -5.481000000     0.371000000
H    -1.969000000    -6.067000000     0.041000000
H    -0.436000000    -6.258000000     0.740000000
C    -0.431000000    -4.807000000    -0.727000000
C    -1.143000000    -4.412000000    -1.862000000
H    -2.218000000    -4.570000000    -1.857000000
C     0.953000000    -4.590000000    -0.767000000
C     1.616000000    -3.945000000    -1.856000000
H     2.671000000    -3.720000000    -1.990000000
C     0.829000000    -3.546000000    -2.946000000
O     1.414000000    -2.765000000    -3.892000000
C     1.139000000    -1.353000000    -3.904000000
C     2.294000000    -0.450000000    -4.197000000
C     2.233000000     0.761000000    -4.938000000
H     1.306000000     1.086000000    -5.402000000
C     3.469000000    -0.716000000    -3.467000000
H     3.495000000    -1.469000000    -2.683000000
O     0.102000000    -1.053000000    -4.864000000
H     0.881000000    -1.021000000    -2.888000000
C    -0.564000000    -3.759000000    -2.988000000
C    -1.469000000    -3.296000000    -4.158000000
H    -2.344000000    -3.948000000    -4.108000000
H    -0.913000000    -3.395000000    -5.093000000
C    -1.957000000    -1.895000000    -3.960000000
C    -3.193000000    -1.613000000    -3.468000000
H    -3.766000000    -2.469000000    -3.123000000
C    -1.173000000    -0.841000000    -4.442000000
C    -1.658000000     0.474000000    -4.191000000
H    -1.094000000     1.323000000    -4.568000000
C    -2.914000000     0.733000000    -3.696000000
O    -3.129000000     2.063000000    -3.340000000
C    -2.899000000     2.541000000    -1.969000000
C    -2.341000000     3.989000000    -1.935000000
C    -1.365000000     4.356000000    -2.820000000
H    -1.209000000     3.664000000    -3.644000000
C    -2.706000000     4.847000000    -0.968000000
H    -3.430000000     4.562000000    -0.209000000
O    -4.180000000     2.436000000    -1.297000000
H    -2.147000000     1.833000000    -1.592000000
C    -3.718000000    -0.378000000    -3.331000000
C    -5.016000000    -0.190000000    -2.668000000
H    -5.596000000    -1.093000000    -2.871000000
H    -5.515000000     0.734000000    -2.966000000
C    -4.856000000     0.038000000    -1.129000000
C    -4.426000000     1.295000000    -0.574000000
C    -4.117000000     1.361000000     0.757000000
H    -3.804000000     2.312000000     1.179000000
C    -4.230000000     0.317000000     1.603000000
O    -3.847000000     0.543000000     2.909000000
C    -2.496000000     0.057000000     3.187000000
H    -1.860000000    -0.061000000     2.297000000
C    -1.786000000     0.912000000     4.221000000
C    -1.018000000     0.370000000     5.238000000
H    -1.039000000    -0.689000000     5.478000000
C    -1.615000000     2.255000000     3.889000000
H    -2.084000000     2.661000000     2.996000000
C    -0.638000000     3.068000000     4.491000000
O    -0.566000000     4.415000000     4.298000000
C     0.119000000     2.500000000     5.527000000
H     0.881000000     3.072000000     6.050000000
C    -0.051000000     1.172000000     5.847000000
O     0.698000000     0.679000000     6.824000000
C     1.267000000    -0.607000000     6.808000000
C     2.457000000    -0.839000000     6.117000000
H     2.765000000     0.037000000     5.552000000
C     0.638000000    -1.560000000     7.486000000
H    -0.218000000    -1.362000000     8.127000000
C     1.287000000    -2.857000000     7.506000000
H     1.024000000    -3.619000000     8.236000000
C     2.470000000    -3.113000000     6.809000000
H     2.812000000    -4.145000000     6.796000000
C     3.057000000    -2.054000000     6.160000000
O     4.098000000    -2.262000000     5.348000000
C     4.064000000    -2.615000000     4.029000000
C     5.154000000    -2.325000000     3.222000000
H     6.040000000    -1.734000000     3.439000000
C     5.176000000    -2.680000000     1.917000000
O     6.335000000    -2.378000000     1.249000000
C     6.356000000    -2.401000000    -0.156000000
C     6.071000000    -1.283000000    -0.883000000
H     5.801000000    -0.368000000    -0.361000000
C     6.554000000    -3.575000000    -0.863000000
H     6.742000000    -4.507000000    -0.335000000
C     6.546000000    -3.522000000    -2.255000000
H     6.672000000    -4.392000000    -2.894000000
C     6.377000000    -2.321000000    -2.955000000
H     6.368000000    -2.406000000    -4.039000000
C     6.094000000    -1.155000000    -2.246000000
O     5.709000000    -0.002000000    -2.836000000
C     4.500000000     0.150000000    -3.480000000
C     4.414000000     1.401000000    -4.155000000
H     5.275000000     2.045000000    -4.316000000
C     3.291000000     1.696000000    -4.863000000
O     3.295000000     2.918000000    -5.565000000
C     2.152000000     3.676000000    -5.662000000
C     1.916000000     4.567000000    -4.611000000
H     2.520000000     4.553000000    -3.708000000
C     1.162000000     3.530000000    -6.702000000
H     1.308000000     2.826000000    -7.517000000
C    -0.025000000     4.302000000    -6.618000000
H    -0.781000000     4.081000000    -7.366000000
C    -0.254000000     5.180000000    -5.567000000
H    -1.172000000     5.754000000    -5.467000000
C     0.670000000     5.272000000    -4.597000000
O     0.303000000     6.035000000    -3.510000000
C    -0.703000000     5.562000000    -2.667000000
C    -0.973000000     6.407000000    -1.569000000
H    -0.584000000     7.417000000    -1.478000000
C    -1.953000000     6.040000000    -0.747000000
O    -2.091000000     6.841000000     0.390000000
C    -2.324000000     6.401000000     1.663000000
C    -3.433000000     6.773000000     2.367000000
H    -4.202000000     7.345000000     1.854000000
C    -3.741000000     6.206000000     3.629000000
H    -4.674000000     6.497000000     4.106000000
C    -2.868000000     5.384000000     4.295000000
H    -3.087000000     5.021000000     5.296000000
C    -1.640000000     5.115000000     3.633000000
C    -1.416000000     5.610000000     2.348000000
H    -0.477000000     5.438000000     1.829000000
O     6.913000000     2.750000000    -1.846000000
H     7.729000000     2.543000000    -1.391000000
H     6.225000000     2.455000000    -1.251000000
O     2.663000000     3.966000000     0.191000000
H     2.624000000     3.174000000    -0.346000000
H     2.053000000     3.799000000     0.909000000
O     3.362000000     2.799000000     7.145000000
H     3.885000000     2.009000000     7.284000000
H     3.240000000     2.842000000     6.197000000
O     6.080000000     5.891000000     0.011000000
H     6.094000000     5.880000000    -0.946000000
H     5.684000000     5.054000000     0.254000000
O     6.946000000     4.910000000    -3.338000000
H     6.884000000     4.155000000    -2.753000000
H     6.271000000     5.512000000    -3.024000000
O     8.473000000    -0.411000000     1.593000000
H     7.555000000    -0.662000000     1.700000000
H     8.725000000    -0.781000000     0.747000000
O     8.878000000     2.530000000     4.899000000
H     8.007000000     2.243000000     4.625000000
H     8.746000000     2.889000000     5.776000000
O     4.682000000     8.193000000     0.450000000
H     5.181000000     7.377000000     0.409000000
H     3.818000000     7.963000000     0.108000000
O     6.922000000     0.676000000     3.884000000
H     6.126000000     0.950000000     3.429000000
H     7.625000000     0.840000000     3.256000000
O     1.468000000     2.822000000     2.401000000
H     2.237000000     2.254000000     2.360000000
H     1.338000000     2.983000000     3.335000000
O     2.256000000     6.906000000    -0.201000000
H     2.332000000     5.964000000    -0.049000000
H     1.705000000     7.221000000     0.516000000
O     5.737000000     5.250000000     4.223000000
H     4.908000000     5.292000000     4.700000000
H     5.511000000     4.852000000     3.383000000
O    10.200000000    -1.034000000     3.893000000
H     9.720000000    -0.746000000     3.116000000
H    10.471000000    -0.223000000     4.323000000
O     7.887000000     2.314000000     1.016000000
H     6.962000000     2.458000000     0.819000000
H     8.035000000     1.390000000     0.813000000
O     5.502000000     1.165000000     6.244000000
H     6.110000000     1.223000000     6.981000000
H     6.041000000     0.869000000     5.511000000
O     9.650000000    -0.378000000    -0.936000000
H     9.694000000    -0.097000000    -1.851000000
H    10.467000000    -0.063000000    -0.550000000
O     4.363000000     4.148000000     2.162000000
H     4.539000000     3.210000000     2.234000000
H     3.800000000     4.227000000     1.391000000
O     3.675000000     2.053000000     4.523000000
H     4.335000000     1.894000000     5.199000000
H     4.130000000     1.878000000     3.699000000
O     9.202000000     4.069000000     2.661000000
H     9.380000000     3.372000000     3.293000000
H     8.694000000     3.643000000     1.971000000
