201
-1225.76878
C     1.483000000    -4.089000000     3.248000000
H     1.453000000    -5.108000000     2.871000000
C     0.474000000    -3.166000000     3.135000000
C     0.486000000    -2.020000000     3.879000000
H    -0.266000000    -1.245000000     3.751000000
C    -0.712000000    -3.377000000     2.220000000
O    -0.880000000    -4.717000000     1.737000000
H    -0.651000000    -2.785000000     1.295000000
O    -1.961000000    -3.067000000     2.892000000
C    -3.062000000    -2.454000000     2.245000000
C    -3.326000000    -1.169000000     2.642000000
H    -2.888000000    -0.817000000     3.572000000
C    -4.095000000    -0.284000000     1.867000000
O    -4.281000000     1.037000000     2.229000000
C    -4.660000000    -0.763000000     0.718000000
C    -5.585000000     0.051000000    -0.223000000
H    -6.296000000    -0.556000000    -0.788000000
C    -4.873000000     0.916000000    -1.215000000
C    -4.397000000     0.403000000    -2.435000000
H    -4.634000000    -0.635000000    -2.655000000
H    -6.217000000     0.631000000     0.453000000
C    -4.496000000    -2.082000000     0.359000000
H    -5.131000000    -2.424000000    -0.454000000
C    -3.642000000    -2.944000000     1.062000000
C    -3.540000000    -4.429000000     0.696000000
H    -4.389000000    -4.535000000     0.017000000
H    -3.728000000    -5.157000000     1.487000000
C    -2.301000000    -4.605000000    -0.198000000
C    -2.320000000    -4.330000000    -1.582000000
H    -3.201000000    -3.974000000    -2.110000000
C    -1.100000000    -4.908000000     0.413000000
C     0.089000000    -4.845000000    -0.329000000
H     1.050000000    -4.920000000     0.174000000
C     0.140000000    -4.630000000    -1.664000000
O     1.383000000    -4.443000000    -2.247000000
C     1.828000000    -3.037000000    -2.419000000
C     3.187000000    -2.780000000    -1.897000000
C     3.908000000    -1.619000000    -2.198000000
H     3.394000000    -0.810000000    -2.710000000
C     3.785000000    -3.788000000    -1.119000000
H     3.277000000    -4.712000000    -0.853000000
O     1.638000000    -2.626000000    -3.804000000
H     1.150000000    -2.351000000    -1.890000000
C    -1.095000000    -4.319000000    -2.319000000
C    -1.079000000    -3.936000000    -3.762000000
H    -1.951000000    -4.229000000    -4.350000000
H    -0.212000000    -4.482000000    -4.141000000
C    -0.819000000    -2.457000000    -4.092000000
C    -1.889000000    -1.611000000    -4.285000000
H    -2.888000000    -2.021000000    -4.406000000
C     0.499000000    -1.899000000    -4.202000000
C     0.662000000    -0.514000000    -4.258000000
H     1.587000000     0.044000000    -4.137000000
C    -0.476000000     0.317000000    -4.314000000
O    -0.310000000     1.635000000    -4.336000000
C    -0.699000000     2.421000000    -3.137000000
C     0.293000000     3.612000000    -2.957000000
C     1.631000000     3.338000000    -3.079000000
H     1.897000000     2.289000000    -3.180000000
C    -0.151000000     4.812000000    -2.436000000
H    -1.228000000     4.933000000    -2.347000000
O    -2.011000000     3.069000000    -3.385000000
H    -0.650000000     1.779000000    -2.246000000
C    -1.756000000    -0.239000000    -4.424000000
C    -3.074000000     0.620000000    -4.565000000
H    -3.841000000    -0.011000000    -5.019000000
H    -2.976000000     1.410000000    -5.312000000
C    -3.492000000     1.154000000    -3.184000000
C    -3.105000000     2.459000000    -2.779000000
C    -3.506000000     2.943000000    -1.509000000
H    -3.138000000     3.895000000    -1.135000000
C    -4.391000000     2.131000000    -0.724000000
O    -4.598000000     2.563000000     0.534000000
C    -3.636000000     2.042000000     1.429000000
H    -2.817000000     1.532000000     0.901000000
C    -3.022000000     3.106000000     2.304000000
C    -2.435000000     2.735000000     3.496000000
H    -2.404000000     1.681000000     3.762000000
C    -3.145000000     4.419000000     1.944000000
H    -3.695000000     4.703000000     1.051000000
C    -2.469000000     5.363000000     2.678000000
O    -2.462000000     6.687000000     2.296000000
C    -1.857000000     5.015000000     3.904000000
H    -1.415000000     5.733000000     4.591000000
C    -1.880000000     3.716000000     4.284000000
O    -1.210000000     3.423000000     5.553000000
C    -0.809000000     2.160000000     5.922000000
C     0.345000000     1.590000000     5.405000000
H     0.977000000     2.284000000     4.857000000
C    -1.697000000     1.430000000     6.719000000
H    -2.575000000     1.963000000     7.074000000
C    -1.366000000     0.131000000     7.025000000
H    -2.091000000    -0.406000000     7.631000000
C    -0.283000000    -0.466000000     6.498000000
H    -0.082000000    -1.471000000     6.860000000
C     0.560000000     0.232000000     5.626000000
O     1.724000000    -0.433000000     5.144000000
C     1.613000000    -1.646000000     4.608000000
C     2.681000000    -2.494000000     4.638000000
H     3.532000000    -2.183000000     5.239000000
C     2.602000000    -3.814000000     4.066000000
O     3.539000000    -4.762000000     4.338000000
C     4.483000000    -5.228000000     3.391000000
C     4.641000000    -4.672000000     2.151000000
H     4.052000000    -3.818000000     1.827000000
C     5.348000000    -6.270000000     3.807000000
H     5.339000000    -6.533000000     4.861000000
C     6.397000000    -6.658000000     2.957000000
H     7.170000000    -7.390000000     3.177000000
C     6.430000000    -6.140000000     1.657000000
H     7.114000000    -6.629000000     0.968000000
C     5.564000000    -5.171000000     1.223000000
O     5.744000000    -4.657000000    -0.060000000
C     5.095000000    -3.543000000    -0.654000000
C     5.827000000    -2.366000000    -1.024000000
H     6.824000000    -2.209000000    -0.621000000
C     5.220000000    -1.423000000    -1.781000000
O     5.888000000    -0.227000000    -2.035000000
C     5.389000000     0.754000000    -2.880000000
C     4.843000000     1.943000000    -2.426000000
H     4.839000000     2.146000000    -1.358000000
C     5.595000000     0.637000000    -4.243000000
H     6.181000000    -0.200000000    -4.614000000
C     5.191000000     1.624000000    -5.196000000
H     5.297000000     1.446000000    -6.264000000
C     4.555000000     2.743000000    -4.696000000
H     4.276000000     3.600000000    -5.304000000
C     4.437000000     2.933000000    -3.339000000
O     3.874000000     4.135000000    -2.806000000
C     2.542000000     4.337000000    -2.815000000
C     2.115000000     5.633000000    -2.516000000
H     2.852000000     6.398000000    -2.284000000
C     0.733000000     5.869000000    -2.230000000
O     0.246000000     7.052000000    -1.687000000
C    -0.933000000     7.188000000    -1.035000000
C    -2.029000000     7.529000000    -1.808000000
H    -1.861000000     7.627000000    -2.878000000
C    -3.243000000     7.663000000    -1.220000000
H    -4.118000000     7.859000000    -1.834000000
C    -3.416000000     7.309000000     0.156000000
H    -4.388000000     7.489000000     0.609000000
C    -2.309000000     7.018000000     0.941000000
C    -1.081000000     6.915000000     0.370000000
H    -0.287000000     6.518000000     0.997000000
O     1.010000000     5.577000000     3.133000000
H     1.656000000     4.919000000     2.877000000
H     0.216000000     5.074000000     3.318000000
O     5.654000000     4.036000000     7.541000000
H     5.129000000     3.719000000     6.806000000
H     5.059000000     4.601000000     8.034000000
O     2.734000000     4.785000000     5.432000000
H     2.968000000     3.897000000     5.702000000
H     2.764000000     4.760000000     4.476000000
O     4.898000000     3.220000000     3.559000000
H     4.075000000     3.115000000     3.082000000
H     4.714000000     2.877000000     4.433000000
O     5.071000000     7.075000000     6.435000000
H     4.199000000     7.454000000     6.322000000
H     5.334000000     6.813000000     5.553000000
O     7.292000000    -1.011000000     1.770000000
H     7.116000000    -0.760000000     2.676000000
H     6.448000000    -0.924000000     1.328000000
O     4.313000000     0.015000000     1.253000000
H     3.475000000    -0.265000000     1.622000000
H     4.245000000     0.968000000     1.202000000
O     7.074000000     3.723000000     0.870000000
H     6.343000000     4.270000000     0.581000000
H     6.659000000     2.937000000     1.224000000
O     0.701000000     5.975000000     7.553000000
H     1.148000000     6.753000000     7.220000000
H     0.800000000     5.325000000     6.858000000
O     3.991000000     8.421000000     2.534000000
H     4.594000000     8.351000000     3.274000000
H     3.199000000     8.809000000     2.905000000
O     3.536000000     2.332000000     6.300000000
H     2.900000000     1.948000000     6.903000000
H     4.345000000     1.848000000     6.465000000
O     6.157000000     6.040000000    -1.731000000
H     5.857000000     5.254000000    -2.188000000
H     5.840000000     5.932000000    -0.835000000
O     2.676000000     7.159000000     0.281000000
H     2.828000000     7.580000000     1.128000000
H     1.744000000     7.296000000     0.110000000
O     0.095000000     8.812000000     3.661000000
H     0.415000000     7.913000000     3.738000000
H     0.876000000     9.328000000     3.463000000
O     4.758000000     5.169000000     0.426000000
H     4.402000000     4.386000000     0.845000000
H     4.018000000     5.775000000     0.383000000
O     6.471000000    -0.785000000     4.937000000
H     7.052000000    -1.531000000     5.086000000
H     6.357000000    -0.393000000     5.802000000
O     1.642000000     1.993000000     8.102000000
H     1.024000000     1.499000000     7.563000000
H     1.115000000     2.319000000     8.832000000
O     7.330000000     1.667000000     4.028000000
H     6.482000000     1.932000000     3.673000000
H     7.200000000     0.760000000     4.306000000
O     5.175000000     5.882000000     3.734000000
H     4.962000000     6.297000000     2.898000000
H     5.088000000     4.944000000     3.564000000
