201
-1256.93710
C     1.982000000    -3.016000000     3.339000000
H     2.363000000    -3.534000000     2.463000000
C     0.633000000    -2.818000000     3.432000000
C     0.121000000    -2.110000000     4.584000000
H    -0.941000000    -1.970000000     4.767000000
C    -0.293000000    -3.278000000     2.281000000
O     0.235000000    -4.437000000     1.536000000
H    -0.347000000    -2.404000000     1.615000000
O    -1.572000000    -3.701000000     2.800000000
C    -2.689000000    -3.118000000     2.183000000
C    -3.128000000    -1.872000000     2.618000000
H    -2.590000000    -1.437000000     3.456000000
C    -4.111000000    -1.181000000     1.895000000
O    -4.394000000     0.044000000     2.383000000
C    -4.536000000    -1.707000000     0.699000000
C    -5.407000000    -0.746000000    -0.164000000
H    -6.135000000    -1.377000000    -0.677000000
C    -4.716000000     0.132000000    -1.147000000
C    -4.500000000    -0.187000000    -2.407000000
H    -4.694000000    -1.230000000    -2.645000000
H    -6.021000000    -0.099000000     0.466000000
C    -4.073000000    -2.937000000     0.246000000
H    -4.334000000    -3.192000000    -0.778000000
C    -3.152000000    -3.633000000     0.963000000
C    -2.479000000    -4.924000000     0.362000000
H    -3.297000000    -5.482000000    -0.099000000
H    -2.163000000    -5.536000000     1.209000000
C    -1.205000000    -4.654000000    -0.398000000
C    -1.412000000    -4.524000000    -1.770000000
H    -2.418000000    -4.560000000    -2.182000000
C     0.043000000    -4.514000000     0.181000000
C     1.142000000    -4.269000000    -0.640000000
H     2.095000000    -3.924000000    -0.248000000
C     0.914000000    -4.155000000    -1.972000000
O     2.004000000    -3.741000000    -2.664000000
C     2.185000000    -2.332000000    -2.881000000
C     3.572000000    -1.870000000    -2.460000000
C     3.986000000    -0.551000000    -2.816000000
H     3.332000000     0.154000000    -3.323000000
C     4.438000000    -2.600000000    -1.566000000
H     4.150000000    -3.583000000    -1.202000000
O     1.820000000    -1.917000000    -4.237000000
H     1.565000000    -1.799000000    -2.145000000
C    -0.332000000    -4.222000000    -2.593000000
C    -0.479000000    -3.973000000    -4.049000000
H    -1.407000000    -4.439000000    -4.390000000
H     0.319000000    -4.382000000    -4.672000000
C    -0.639000000    -2.492000000    -4.331000000
C    -1.880000000    -1.934000000    -4.561000000
H    -2.722000000    -2.616000000    -4.645000000
C     0.485000000    -1.626000000    -4.362000000
C     0.336000000    -0.283000000    -4.535000000
H     1.131000000     0.429000000    -4.329000000
C    -0.881000000     0.257000000    -4.778000000
O    -1.026000000     1.626000000    -4.867000000
C    -1.172000000     2.277000000    -3.580000000
C    -0.245000000     3.514000000    -3.412000000
C     1.030000000     3.497000000    -3.952000000
H     1.440000000     2.691000000    -4.555000000
C    -0.699000000     4.559000000    -2.648000000
H    -1.658000000     4.422000000    -2.154000000
O    -2.501000000     2.639000000    -3.570000000
H    -0.965000000     1.640000000    -2.707000000
C    -2.009000000    -0.569000000    -4.767000000
C    -3.394000000     0.054000000    -4.689000000
H    -4.144000000    -0.580000000    -5.165000000
H    -3.290000000     0.910000000    -5.359000000
C    -3.773000000     0.600000000    -3.298000000
C    -3.337000000     1.876000000    -2.767000000
C    -3.632000000     2.307000000    -1.475000000
H    -3.288000000     3.249000000    -1.055000000
C    -4.298000000     1.409000000    -0.634000000
O    -4.467000000     1.814000000     0.705000000
C    -3.671000000     1.156000000     1.765000000
H    -2.786000000     0.689000000     1.309000000
C    -3.041000000     2.186000000     2.689000000
C    -2.968000000     1.832000000     4.075000000
H    -3.478000000     0.949000000     4.453000000
C    -2.423000000     3.344000000     2.235000000
H    -2.501000000     3.604000000     1.183000000
C    -1.739000000     4.127000000     3.145000000
O    -0.995000000     5.176000000     2.660000000
C    -1.598000000     3.729000000     4.478000000
H    -0.917000000     4.318000000     5.087000000
C    -2.258000000     2.629000000     5.002000000
O    -2.460000000     2.457000000     6.341000000
C    -2.136000000     1.229000000     6.921000000
C    -1.066000000     0.456000000     6.514000000
H    -0.404000000     0.877000000     5.763000000
C    -2.845000000     0.771000000     8.060000000
H    -3.677000000     1.365000000     8.428000000
C    -2.482000000    -0.428000000     8.716000000
H    -3.048000000    -0.788000000     9.571000000
C    -1.374000000    -1.122000000     8.286000000
H    -1.133000000    -2.105000000     8.685000000
C    -0.677000000    -0.713000000     7.180000000
O     0.580000000    -1.303000000     6.932000000
C     1.008000000    -1.758000000     5.637000000
C     2.363000000    -2.039000000     5.469000000
H     3.103000000    -1.722000000     6.200000000
C     2.812000000    -2.672000000     4.345000000
O     4.182000000    -2.807000000     4.092000000
C     4.787000000    -3.464000000     3.023000000
C     5.384000000    -2.849000000     1.916000000
H     5.459000000    -1.768000000     1.841000000
C     4.782000000    -4.855000000     3.096000000
H     4.380000000    -5.286000000     4.009000000
C     5.233000000    -5.674000000     2.060000000
H     4.905000000    -6.709000000     2.017000000
C     5.766000000    -5.078000000     0.889000000
H     6.137000000    -5.641000000     0.037000000
C     5.889000000    -3.665000000     0.914000000
O     6.369000000    -2.983000000    -0.236000000
C     5.631000000    -2.110000000    -1.073000000
C     6.117000000    -0.900000000    -1.561000000
H     7.102000000    -0.493000000    -1.345000000
C     5.327000000    -0.107000000    -2.448000000
O     5.953000000     1.025000000    -2.824000000
C     5.395000000     1.753000000    -3.892000000
C     4.428000000     2.755000000    -3.567000000
H     4.024000000     2.912000000    -2.570000000
C     5.975000000     1.708000000    -5.199000000
H     6.745000000     0.957000000    -5.354000000
C     5.512000000     2.699000000    -6.138000000
H     5.997000000     2.760000000    -7.109000000
C     4.457000000     3.571000000    -5.824000000
H     4.121000000     4.403000000    -6.439000000
C     4.009000000     3.669000000    -4.531000000
O     3.152000000     4.707000000    -4.201000000
C     1.838000000     4.619000000    -3.667000000
C     1.323000000     5.702000000    -2.982000000
H     1.886000000     6.614000000    -2.806000000
C     0.112000000     5.680000000    -2.432000000
O    -0.384000000     6.754000000    -1.809000000
C    -1.120000000     6.685000000    -0.629000000
C    -2.214000000     7.436000000    -0.542000000
H    -2.395000000     8.075000000    -1.403000000
C    -3.041000000     7.351000000     0.571000000
H    -4.003000000     7.858000000     0.551000000
C    -2.687000000     6.580000000     1.636000000
H    -3.342000000     6.512000000     2.501000000
C    -1.439000000     5.939000000     1.610000000
C    -0.708000000     5.925000000     0.441000000
H     0.223000000     5.365000000     0.408000000
O     2.583000000     5.671000000     5.037000000
H     2.416000000     4.885000000     4.515000000
H     1.773000000     6.176000000     4.973000000
O     0.934000000     3.904000000     6.672000000
H     0.568000000     3.027000000     6.784000000
H     1.441000000     3.851000000     5.862000000
O     2.945000000     0.874000000     4.611000000
H     2.680000000     0.856000000     5.531000000
H     2.663000000     1.733000000     4.297000000
O     6.966000000     5.040000000     5.284000000
H     6.653000000     4.517000000     4.546000000
H     6.280000000     5.692000000     5.424000000
O     5.368000000     0.970000000     7.147000000
H     4.687000000     1.640000000     7.109000000
H     5.827000000     1.048000000     6.310000000
O     4.904000000     6.586000000     6.314000000
H     4.840000000     7.537000000     6.235000000
H     4.182000000     6.252000000     5.781000000
O     5.754000000     0.799000000     4.226000000
H     6.004000000     1.668000000     3.912000000
H     4.818000000     0.873000000     4.414000000
O     3.230000000     0.299000000     1.944000000
H     2.335000000     0.499000000     1.671000000
H     3.172000000     0.185000000     2.892000000
O     4.428000000     1.735000000    -0.107000000
H     4.152000000     1.428000000     0.756000000
H     4.837000000     0.972000000    -0.514000000
O     2.099000000     5.134000000     8.756000000
H     2.370000000     5.896000000     8.244000000
H     1.528000000     4.640000000     8.167000000
O     2.827000000     6.907000000    -0.147000000
H     2.518000000     6.860000000     0.758000000
H     3.231000000     6.054000000    -0.307000000
O     4.117000000     8.693000000     2.366000000
H     3.331000000     8.160000000     2.247000000
H     3.916000000     9.519000000     1.926000000
O     2.273000000     0.873000000     7.545000000
H     2.730000000     0.033000000     7.574000000
H     2.199000000     1.138000000     8.462000000
O     4.033000000     4.442000000     0.546000000
H     4.047000000     3.592000000     0.107000000
H     3.510000000     4.296000000     1.334000000
O     4.357000000     3.636000000     7.102000000
H     4.609000000     4.164000000     6.344000000
H     3.569000000     4.061000000     7.439000000
O     5.910000000     3.298000000     3.026000000
H     6.620000000     3.383000000     2.391000000
H     5.522000000     4.172000000     3.070000000
O     0.235000000     7.461000000     4.556000000
H    -0.629000000     7.204000000     4.878000000
H     0.408000000     8.302000000     4.980000000
O     1.709000000     7.067000000     2.324000000
H     1.715000000     6.120000000     2.463000000
H     1.113000000     7.404000000     2.993000000
O     4.886000000     5.958000000     3.342000000
H     4.730000000     6.742000000     2.815000000
H     4.100000000     5.873000000     3.882000000
