201
-1219.00071
C     2.650000000    -3.546000000     3.243000000
H     2.815000000    -4.176000000     2.373000000
C     1.335000000    -3.090000000     3.363000000
C     1.197000000    -2.109000000     4.296000000
H     0.189000000    -1.701000000     4.294000000
C     0.135000000    -3.437000000     2.425000000
O     0.498000000    -4.656000000     1.843000000
H    -0.031000000    -2.704000000     1.622000000
O    -1.112000000    -3.562000000     3.189000000
C    -2.308000000    -3.201000000     2.665000000
C    -2.852000000    -1.986000000     3.251000000
H    -2.318000000    -1.475000000     4.048000000
C    -3.780000000    -1.253000000     2.588000000
O    -4.040000000     0.072000000     2.956000000
C    -4.362000000    -1.843000000     1.447000000
C    -5.450000000    -1.155000000     0.676000000
H    -6.018000000    -1.875000000     0.083000000
C    -4.951000000    -0.139000000    -0.357000000
C    -4.588000000    -0.606000000    -1.667000000
H    -4.843000000    -1.620000000    -1.962000000
H    -6.074000000    -0.571000000     1.356000000
C    -3.894000000    -3.034000000     0.884000000
H    -4.244000000    -3.408000000    -0.074000000
C    -2.916000000    -3.768000000     1.527000000
C    -2.343000000    -5.060000000     0.999000000
H    -3.178000000    -5.648000000     0.612000000
H    -2.061000000    -5.706000000     1.833000000
C    -1.129000000    -4.896000000     0.108000000
C    -1.436000000    -4.829000000    -1.295000000
H    -2.410000000    -5.094000000    -1.697000000
C     0.160000000    -4.782000000     0.560000000
C     1.170000000    -4.625000000    -0.418000000
H     2.188000000    -4.370000000    -0.136000000
C     0.860000000    -4.428000000    -1.744000000
O     1.817000000    -3.868000000    -2.603000000
C     1.811000000    -2.456000000    -2.813000000
C     3.086000000    -1.682000000    -2.560000000
C     3.585000000    -0.716000000    -3.482000000
H     3.096000000    -0.383000000    -4.394000000
C     3.875000000    -2.079000000    -1.484000000
H     3.524000000    -2.822000000    -0.772000000
O     1.368000000    -2.254000000    -4.109000000
H     1.109000000    -2.048000000    -2.071000000
C    -0.448000000    -4.506000000    -2.201000000
C    -0.843000000    -4.294000000    -3.680000000
H    -1.725000000    -4.898000000    -3.905000000
H    -0.068000000    -4.695000000    -4.336000000
C    -1.038000000    -2.790000000    -3.908000000
C    -2.315000000    -2.229000000    -3.961000000
H    -3.097000000    -2.941000000    -3.713000000
C     0.033000000    -1.920000000    -4.164000000
C    -0.111000000    -0.570000000    -4.436000000
H     0.710000000     0.082000000    -4.723000000
C    -1.390000000    -0.020000000    -4.512000000
O    -1.565000000     1.297000000    -4.625000000
C    -1.622000000     2.014000000    -3.341000000
C    -0.574000000     3.156000000    -3.205000000
C     0.516000000     3.334000000    -4.090000000
H     0.652000000     2.817000000    -5.036000000
C    -0.775000000     4.051000000    -2.144000000
H    -1.685000000     3.874000000    -1.577000000
O    -2.985000000     2.414000000    -3.015000000
H    -1.417000000     1.287000000    -2.541000000
C    -2.455000000    -0.869000000    -4.321000000
C    -3.788000000    -0.197000000    -4.078000000
H    -4.564000000    -0.940000000    -4.274000000
H    -3.956000000     0.653000000    -4.742000000
C    -4.051000000     0.239000000    -2.662000000
C    -3.752000000     1.570000000    -2.280000000
C    -4.063000000     2.044000000    -1.002000000
H    -3.832000000     3.080000000    -0.767000000
C    -4.625000000     1.179000000    -0.081000000
O    -4.655000000     1.532000000     1.233000000
C    -3.602000000     1.153000000     2.149000000
H    -2.728000000     0.854000000     1.552000000
C    -3.140000000     2.342000000     3.017000000
C    -2.390000000     2.103000000     4.175000000
H    -2.213000000     1.076000000     4.485000000
C    -3.373000000     3.757000000     2.703000000
H    -3.768000000     4.067000000     1.739000000
C    -2.856000000     4.779000000     3.524000000
O    -2.902000000     6.061000000     3.084000000
C    -2.152000000     4.480000000     4.628000000
H    -1.580000000     5.281000000     5.090000000
C    -2.067000000     3.112000000     5.016000000
O    -1.186000000     2.842000000     6.062000000
C    -0.892000000     1.549000000     6.436000000
C     0.418000000     1.031000000     6.148000000
H     1.139000000     1.697000000     5.681000000
C    -1.802000000     0.715000000     7.083000000
H    -2.824000000     1.036000000     7.269000000
C    -1.452000000    -0.635000000     7.382000000
H    -2.148000000    -1.319000000     7.859000000
C    -0.199000000    -1.148000000     7.065000000
H     0.111000000    -2.164000000     7.295000000
C     0.806000000    -0.282000000     6.547000000
O     1.963000000    -0.832000000     6.160000000
C     2.178000000    -1.697000000     5.139000000
C     3.464000000    -2.229000000     5.069000000
H     4.194000000    -1.879000000     5.794000000
C     3.714000000    -3.159000000     4.016000000
O     4.991000000    -3.607000000     3.830000000
C     5.669000000    -3.664000000     2.650000000
C     5.439000000    -2.669000000     1.741000000
H     4.580000000    -2.012000000     1.854000000
C     6.810000000    -4.458000000     2.514000000
H     6.992000000    -5.187000000     3.300000000
C     7.656000000    -4.298000000     1.448000000
H     8.540000000    -4.901000000     1.260000000
C     7.362000000    -3.431000000     0.384000000
H     7.903000000    -3.322000000    -0.552000000
C     6.221000000    -2.662000000     0.551000000
O     6.024000000    -1.594000000    -0.211000000
C     5.065000000    -1.431000000    -1.190000000
C     5.466000000    -0.320000000    -1.972000000
H     6.310000000     0.321000000    -1.731000000
C     4.753000000    -0.057000000    -3.089000000
O     5.301000000     0.985000000    -3.829000000
C     4.683000000     1.892000000    -4.690000000
C     3.883000000     2.923000000    -4.155000000
H     3.844000000     3.051000000    -3.076000000
C     4.752000000     1.785000000    -6.076000000
H     5.314000000     0.963000000    -6.514000000
C     3.988000000     2.583000000    -6.912000000
H     3.946000000     2.380000000    -7.979000000
C     3.231000000     3.647000000    -6.410000000
H     2.582000000     4.218000000    -7.070000000
C     3.244000000     3.860000000    -5.034000000
O     2.420000000     4.823000000    -4.583000000
C     1.292000000     4.512000000    -3.870000000
C     1.057000000     5.409000000    -2.795000000
H     1.546000000     6.378000000    -2.739000000
C     0.037000000     5.179000000    -1.962000000
O    -0.091000000     6.058000000    -0.870000000
C    -1.260000000     6.416000000    -0.254000000
C    -2.233000000     7.146000000    -0.897000000
H    -2.114000000     7.365000000    -1.955000000
C    -3.466000000     7.426000000    -0.234000000
H    -4.290000000     7.833000000    -0.814000000
C    -3.593000000     7.224000000     1.127000000
H    -4.466000000     7.565000000     1.678000000
C    -2.619000000     6.456000000     1.740000000
C    -1.456000000     6.017000000     1.045000000
H    -0.739000000     5.454000000     1.638000000
O     1.339000000     9.617000000    -0.539000000
H     1.287000000     9.726000000     0.411000000
H     1.247000000     8.675000000    -0.677000000
O     6.706000000     3.136000000     2.512000000
H     6.412000000     4.045000000     2.450000000
H     6.369000000     2.721000000     1.718000000
O     1.258000000     6.620000000     2.748000000
H     1.816000000     7.395000000     2.679000000
H     1.745000000     5.933000000     2.294000000
O     1.002000000     5.304000000     5.574000000
H     1.871000000     4.912000000     5.489000000
H     0.832000000     5.698000000     4.718000000
O     5.081000000     8.863000000     2.342000000
H     5.787000000     8.930000000     1.698000000
H     4.675000000     8.015000000     2.165000000
O     4.939000000     6.400000000     4.744000000
H     5.665000000     6.182000000     5.329000000
H     4.210000000     5.865000000     5.059000000
O    -0.727000000     8.706000000     3.587000000
H    -1.181000000     8.276000000     4.312000000
H    -0.139000000     8.034000000     3.240000000
O     7.785000000     8.004000000     0.530000000
H     7.346000000     7.273000000     0.966000000
H     8.010000000     7.666000000    -0.337000000
O     3.931000000     3.037000000     3.512000000
H     3.566000000     3.727000000     2.957000000
H     4.017000000     2.282000000     2.930000000
O     4.485000000     5.871000000    -1.957000000
H     4.959000000     5.323000000    -2.583000000
H     4.226000000     5.269000000    -1.259000000
O     3.472000000     7.299000000     0.692000000
H     3.824000000     7.354000000    -0.196000000
H     3.235000000     6.378000000     0.799000000
O     8.052000000     3.901000000    -0.421000000
H     7.707000000     4.531000000    -1.054000000
H     8.788000000     4.353000000    -0.010000000
O     3.863000000     0.639000000     1.819000000
H     4.443000000     0.789000000     1.072000000
H     2.982000000     0.761000000     1.466000000
O     3.393000000     4.585000000     5.887000000
H     3.430000000     4.196000000     6.761000000
H     3.431000000     3.837000000     5.291000000
O     5.422000000     2.302000000     0.121000000
H     4.798000000     2.995000000    -0.095000000
H     6.200000000     2.511000000    -0.395000000
O     6.866000000     4.883000000    -3.159000000
H     7.391000000     4.509000000    -3.866000000
H     7.252000000     5.746000000    -3.005000000
O     5.181000000     8.285000000    -2.775000000
H     5.900000000     8.517000000    -2.187000000
H     4.804000000     7.493000000    -2.391000000
O     5.402000000     5.643000000     2.177000000
H     5.203000000     5.929000000     3.069000000
H     4.546000000     5.508000000     1.772000000
O     5.955000000     1.173000000     4.580000000
H     6.474000000     1.524000000     3.856000000
H     5.101000000     1.596000000     4.490000000
