201
-1271.37456
C     1.278000000    -2.631000000     4.356000000
H     1.393000000    -3.606000000     3.890000000
C     0.085000000    -1.928000000     4.145000000
C     0.120000000    -0.605000000     4.586000000
H    -0.801000000    -0.038000000     4.477000000
C    -1.028000000    -2.449000000     3.223000000
O    -0.953000000    -3.873000000     2.948000000
H    -0.765000000    -1.901000000     2.307000000
O    -2.319000000    -1.912000000     3.663000000
C    -3.172000000    -1.394000000     2.719000000
C    -3.462000000    -0.029000000     2.772000000
H    -3.081000000     0.669000000     3.513000000
C    -4.314000000     0.389000000     1.805000000
O    -4.571000000     1.755000000     1.729000000
C    -4.856000000    -0.374000000     0.796000000
C    -5.667000000     0.228000000    -0.383000000
H    -6.369000000    -0.508000000    -0.781000000
C    -4.795000000     0.751000000    -1.513000000
C    -4.572000000     0.039000000    -2.707000000
H    -5.162000000    -0.860000000    -2.863000000
H    -6.333000000     0.998000000     0.014000000
C    -4.551000000    -1.698000000     0.837000000
H    -5.003000000    -2.227000000     0.002000000
C    -3.771000000    -2.257000000     1.826000000
C    -3.589000000    -3.759000000     1.892000000
H    -4.559000000    -4.141000000     1.567000000
H    -3.476000000    -4.056000000     2.937000000
C    -2.435000000    -4.092000000     1.055000000
C    -2.530000000    -4.362000000    -0.321000000
H    -3.497000000    -4.287000000    -0.813000000
C    -1.143000000    -4.199000000     1.644000000
C    -0.053000000    -4.589000000     0.966000000
H     0.957000000    -4.639000000     1.366000000
C    -0.136000000    -4.706000000    -0.463000000
O     1.009000000    -4.810000000    -1.161000000
C     1.498000000    -3.496000000    -1.627000000
C     2.960000000    -3.255000000    -1.266000000
C     3.614000000    -2.162000000    -1.837000000
H     2.996000000    -1.474000000    -2.409000000
C     3.605000000    -4.027000000    -0.276000000
H     3.131000000    -4.882000000     0.198000000
O     1.234000000    -3.559000000    -3.017000000
H     0.899000000    -2.703000000    -1.155000000
C    -1.369000000    -4.549000000    -1.110000000
C    -1.509000000    -4.739000000    -2.647000000
H    -2.455000000    -5.267000000    -2.783000000
H    -0.767000000    -5.442000000    -3.031000000
C    -1.244000000    -3.438000000    -3.299000000
C    -2.270000000    -2.630000000    -3.848000000
H    -3.303000000    -2.956000000    -3.764000000
C     0.054000000    -2.953000000    -3.460000000
C     0.281000000    -1.668000000    -4.050000000
H     1.299000000    -1.328000000    -4.224000000
C    -0.808000000    -0.949000000    -4.502000000
O    -0.510000000     0.265000000    -4.971000000
C    -0.619000000     1.376000000    -4.070000000
C     0.533000000     2.350000000    -4.355000000
C     1.738000000     1.833000000    -4.839000000
H     1.876000000     0.815000000    -5.196000000
C     0.458000000     3.674000000    -3.929000000
H    -0.458000000     4.026000000    -3.461000000
O    -1.856000000     2.092000000    -4.166000000
H    -0.592000000     1.006000000    -3.035000000
C    -2.069000000    -1.394000000    -4.392000000
C    -3.165000000    -0.497000000    -4.769000000
H    -3.956000000    -1.145000000    -5.151000000
H    -2.864000000     0.158000000    -5.588000000
C    -3.535000000     0.392000000    -3.607000000
C    -2.861000000     1.647000000    -3.338000000
C    -3.237000000     2.472000000    -2.299000000
H    -2.647000000     3.374000000    -2.160000000
C    -4.189000000     2.005000000    -1.402000000
O    -4.361000000     2.848000000    -0.369000000
C    -3.655000000     2.531000000     0.865000000
H    -2.777000000     1.914000000     0.627000000
C    -2.979000000     3.695000000     1.593000000
C    -2.906000000     3.807000000     2.978000000
H    -3.370000000     3.024000000     3.573000000
C    -2.153000000     4.568000000     0.812000000
H    -2.057000000     4.469000000    -0.266000000
C    -1.191000000     5.393000000     1.507000000
O    -0.252000000     6.148000000     0.778000000
C    -1.221000000     5.471000000     2.879000000
H    -0.544000000     6.147000000     3.395000000
C    -2.130000000     4.718000000     3.604000000
O    -2.073000000     4.750000000     4.971000000
C    -1.631000000     3.737000000     5.710000000
C    -0.569000000     2.924000000     5.215000000
H    -0.028000000     3.153000000     4.301000000
C    -2.179000000     3.484000000     6.951000000
H    -2.920000000     4.125000000     7.422000000
C    -1.604000000     2.542000000     7.817000000
H    -1.834000000     2.407000000     8.871000000
C    -0.597000000     1.732000000     7.334000000
H    -0.118000000     0.987000000     7.964000000
C    -0.028000000     2.001000000     6.118000000
O     1.069000000     1.244000000     5.760000000
C     1.155000000    -0.069000000     5.320000000
C     2.290000000    -0.812000000     5.576000000
H     3.089000000    -0.331000000     6.135000000
C     2.363000000    -2.111000000     5.110000000
O     3.558000000    -2.848000000     5.284000000
C     3.979000000    -3.905000000     4.442000000
C     4.415000000    -3.610000000     3.152000000
H     4.399000000    -2.559000000     2.873000000
C     4.154000000    -5.204000000     4.977000000
H     3.845000000    -5.379000000     6.004000000
C     4.571000000    -6.280000000     4.178000000
H     4.647000000    -7.263000000     4.634000000
C     4.944000000    -5.956000000     2.853000000
H     5.282000000    -6.754000000     2.197000000
C     4.918000000    -4.683000000     2.372000000
O     5.504000000    -4.401000000     1.174000000
C     4.852000000    -3.684000000     0.169000000
C     5.467000000    -2.509000000    -0.309000000
H     6.395000000    -2.185000000     0.154000000
C     4.889000000    -1.807000000    -1.341000000
O     5.526000000    -0.653000000    -1.907000000
C     5.407000000    -0.357000000    -3.308000000
C     4.781000000     0.848000000    -3.709000000
H     4.494000000     1.534000000    -2.916000000
C     5.936000000    -1.194000000    -4.267000000
H     6.420000000    -2.128000000    -3.994000000
C     5.905000000    -0.816000000    -5.638000000
H     6.396000000    -1.386000000    -6.422000000
C     5.246000000     0.407000000    -5.990000000
H     5.179000000     0.785000000    -7.006000000
C     4.647000000     1.187000000    -5.075000000
O     4.005000000     2.348000000    -5.423000000
C     2.806000000     2.732000000    -4.906000000
C     2.766000000     4.075000000    -4.492000000
H     3.703000000     4.623000000    -4.536000000
C     1.541000000     4.519000000    -3.958000000
O     1.379000000     5.909000000    -3.656000000
C     0.461000000     6.386000000    -2.737000000
C    -0.522000000     7.309000000    -3.199000000
H    -0.659000000     7.595000000    -4.239000000
C    -1.492000000     7.746000000    -2.285000000
H    -2.353000000     8.328000000    -2.604000000
C    -1.400000000     7.301000000    -0.948000000
H    -2.196000000     7.610000000    -0.274000000
C    -0.337000000     6.473000000    -0.507000000
C     0.587000000     6.055000000    -1.405000000
H     1.401000000     5.405000000    -1.093000000
O     6.832000000     5.749000000    -1.960000000
H     7.387000000     6.286000000    -1.395000000
H     7.109000000     4.850000000    -1.784000000
O     7.619000000    -0.017000000     3.508000000
H     8.147000000     0.780000000     3.456000000
H     6.888000000     0.141000000     2.911000000
O     3.132000000     7.013000000     5.372000000
H     2.841000000     6.952000000     4.462000000
H     3.086000000     6.114000000     5.699000000
O     7.742000000     2.540000000     1.412000000
H     7.334000000     3.336000000     1.753000000
H     8.679000000     2.669000000     1.560000000
O     3.867000000     0.199000000     2.862000000
H     3.134000000    -0.156000000     2.360000000
H     4.581000000     0.265000000     2.229000000
O     5.741000000     4.602000000     5.335000000
H     6.407000000     5.179000000     4.961000000
H     5.207000000     4.335000000     4.586000000
O     3.921000000     8.198000000    -0.359000000
H     3.481000000     8.261000000     0.489000000
H     4.079000000     7.262000000    -0.478000000
O     3.325000000     2.632000000     4.344000000
H     2.941000000     2.971000000     3.536000000
H     3.566000000     1.729000000     4.134000000
O     6.678000000     2.921000000    -1.055000000
H     5.787000000     2.832000000    -0.715000000
H     7.241000000     2.728000000    -0.306000000
O     4.064000000     1.840000000     7.722000000
H     4.490000000     0.983000000     7.727000000
H     3.574000000     1.860000000     6.900000000
O     6.053000000     0.271000000     1.123000000
H     6.576000000     1.068000000     1.031000000
H     6.371000000    -0.305000000     0.427000000
O     7.559000000     5.737000000     2.014000000
H     6.638000000     5.612000000     2.242000000
H     7.543000000     6.349000000     1.278000000
O     8.356000000     1.159000000    -2.436000000
H     7.638000000     1.609000000    -1.990000000
H     8.636000000     0.484000000    -1.818000000
O     4.147000000     5.584000000    -0.947000000
H     4.035000000     4.828000000    -0.370000000
H     5.072000000     5.564000000    -1.190000000
O     2.602000000     6.179000000     2.914000000
H     2.400000000     6.881000000     2.295000000
H     2.173000000     5.406000000     2.547000000
O     2.807000000     4.444000000     6.314000000
H     3.751000000     4.352000000     6.190000000
H     2.424000000     3.782000000     5.738000000
O     7.594000000     2.482000000     5.967000000
H     6.986000000     3.111000000     5.579000000
H     8.128000000     3.002000000     6.567000000
O     4.939000000     4.883000000     2.626000000
H     4.746000000     4.154000000     2.036000000
H     4.084000000     5.269000000     2.817000000
O     2.629000000     8.986000000     2.294000000
H     3.341000000     9.591000000     2.504000000
H     1.915000000     9.246000000     2.875000000
