201
-1250.36716
C    -0.424000000    -2.160000000     5.375000000
H    -0.173000000    -3.147000000     4.995000000
C    -1.420000000    -1.414000000     4.666000000
C    -1.745000000    -0.139000000     5.058000000
H    -2.424000000     0.472000000     4.467000000
C    -2.234000000    -2.000000000     3.455000000
O    -2.134000000    -3.436000000     3.355000000
H    -1.812000000    -1.606000000     2.518000000
O    -3.599000000    -1.612000000     3.498000000
C    -4.080000000    -1.179000000     2.260000000
C    -3.934000000     0.158000000     2.056000000
H    -3.427000000     0.772000000     2.796000000
C    -4.295000000     0.657000000     0.838000000
O    -4.184000000     2.017000000     0.624000000
C    -4.813000000    -0.204000000    -0.172000000
C    -5.210000000     0.409000000    -1.507000000
H    -5.988000000    -0.167000000    -2.014000000
C    -4.019000000     0.677000000    -2.474000000
C    -3.613000000    -0.304000000    -3.306000000
H    -4.100000000    -1.273000000    -3.379000000
H    -5.676000000     1.346000000    -1.196000000
C    -4.946000000    -1.597000000     0.036000000
H    -5.296000000    -2.271000000    -0.742000000
C    -4.541000000    -2.050000000     1.284000000
C    -4.304000000    -3.558000000     1.409000000
H    -5.025000000    -4.161000000     0.852000000
H    -4.609000000    -3.757000000     2.439000000
C    -2.897000000    -4.112000000     1.123000000
C    -2.553000000    -4.557000000    -0.182000000
H    -3.282000000    -4.803000000    -0.951000000
C    -1.874000000    -4.010000000     2.140000000
C    -0.501000000    -4.296000000     1.759000000
H     0.232000000    -4.106000000     2.538000000
C    -0.199000000    -4.621000000     0.418000000
O     1.144000000    -4.735000000     0.008000000
C     1.689000000    -3.680000000    -0.762000000
C     2.913000000    -3.088000000    -0.065000000
C     3.891000000    -2.424000000    -0.845000000
H     3.922000000    -2.483000000    -1.930000000
C     3.082000000    -3.093000000     1.323000000
H     2.403000000    -3.580000000     2.018000000
O     1.924000000    -4.010000000    -2.122000000
H     0.930000000    -2.890000000    -0.656000000
C    -1.236000000    -4.824000000    -0.545000000
C    -0.830000000    -5.081000000    -1.980000000
H    -1.724000000    -5.480000000    -2.463000000
H    -0.132000000    -5.920000000    -2.004000000
C    -0.375000000    -3.907000000    -2.857000000
C    -1.320000000    -3.207000000    -3.576000000
H    -2.343000000    -3.550000000    -3.442000000
C     0.988000000    -3.512000000    -3.008000000
C     1.397000000    -2.420000000    -3.766000000
H     2.419000000    -2.059000000    -3.677000000
C     0.408000000    -1.701000000    -4.369000000
O     0.699000000    -0.440000000    -4.981000000
C     0.469000000     0.736000000    -4.269000000
C     1.730000000     1.650000000    -4.327000000
C     3.043000000     1.117000000    -4.447000000
H     3.188000000     0.040000000    -4.414000000
C     1.592000000     2.982000000    -4.546000000
H     0.563000000     3.294000000    -4.703000000
O    -0.717000000     1.296000000    -4.885000000
H     0.294000000     0.448000000    -3.222000000
C    -0.935000000    -2.103000000    -4.396000000
C    -2.064000000    -1.274000000    -5.036000000
H    -2.911000000    -1.929000000    -5.249000000
H    -1.729000000    -0.810000000    -5.966000000
C    -2.527000000    -0.151000000    -4.161000000
C    -1.849000000     1.118000000    -4.238000000
C    -2.231000000     2.136000000    -3.394000000
H    -1.627000000     3.037000000    -3.328000000
C    -3.334000000     1.964000000    -2.493000000
O    -3.535000000     2.829000000    -1.500000000
C    -3.110000000     2.412000000    -0.216000000
H    -2.492000000     1.502000000    -0.254000000
C    -2.236000000     3.518000000     0.362000000
C    -2.359000000     3.871000000     1.682000000
H    -3.214000000     3.442000000     2.198000000
C    -1.102000000     4.047000000    -0.286000000
H    -0.946000000     3.821000000    -1.338000000
C    -0.362000000     5.015000000     0.293000000
O     0.697000000     5.631000000    -0.347000000
C    -0.572000000     5.418000000     1.582000000
H    -0.032000000     6.256000000     2.014000000
C    -1.633000000     4.840000000     2.272000000
O    -1.855000000     5.315000000     3.544000000
C    -2.368000000     4.486000000     4.590000000
C    -1.590000000     3.450000000     5.095000000
H    -0.579000000     3.343000000     4.712000000
C    -3.684000000     4.623000000     4.986000000
H    -4.253000000     5.423000000     4.521000000
C    -4.185000000     3.810000000     5.985000000
H    -5.229000000     3.975000000     6.240000000
C    -3.379000000     2.902000000     6.590000000
H    -3.820000000     2.271000000     7.358000000
C    -2.079000000     2.622000000     6.071000000
O    -1.342000000     1.671000000     6.652000000
C    -1.078000000     0.380000000     6.193000000
C    -0.083000000    -0.259000000     6.875000000
H     0.407000000     0.197000000     7.732000000
C     0.298000000    -1.564000000     6.410000000
O     1.350000000    -2.211000000     7.004000000
C     2.193000000    -2.911000000     6.200000000
C     2.857000000    -2.296000000     5.167000000
H     2.713000000    -1.244000000     4.933000000
C     2.365000000    -4.316000000     6.357000000
H     1.705000000    -4.835000000     7.047000000
C     3.248000000    -5.095000000     5.597000000
H     3.353000000    -6.177000000     5.600000000
C     3.830000000    -4.430000000     4.529000000
H     4.367000000    -4.983000000     3.763000000
C     3.678000000    -3.037000000     4.297000000
O     4.377000000    -2.367000000     3.320000000
C     4.174000000    -2.385000000     1.937000000
C     5.101000000    -1.738000000     1.121000000
H     5.900000000    -1.177000000     1.598000000
C     4.997000000    -1.816000000    -0.268000000
O     6.021000000    -1.289000000    -0.979000000
C     5.959000000    -1.113000000    -2.352000000
C     5.651000000     0.164000000    -2.868000000
H     5.229000000     0.997000000    -2.312000000
C     6.582000000    -2.025000000    -3.182000000
H     6.813000000    -2.973000000    -2.703000000
C     6.734000000    -1.838000000    -4.542000000
H     7.049000000    -2.685000000    -5.145000000
C     6.242000000    -0.613000000    -5.063000000
H     6.201000000    -0.399000000    -6.128000000
C     5.803000000     0.357000000    -4.250000000
O     5.400000000     1.537000000    -4.720000000
C     4.102000000     1.973000000    -4.692000000
C     3.948000000     3.355000000    -4.849000000
H     4.861000000     3.934000000    -4.955000000
C     2.660000000     3.846000000    -4.771000000
O     2.429000000     5.154000000    -4.833000000
C     1.624000000     5.810000000    -3.933000000
C     0.805000000     6.866000000    -4.340000000
H     1.101000000     7.317000000    -5.284000000
C    -0.085000000     7.442000000    -3.476000000
H    -0.752000000     8.247000000    -3.774000000
C    -0.170000000     6.941000000    -2.159000000
H    -0.884000000     7.417000000    -1.492000000
C     0.661000000     5.923000000    -1.720000000
C     1.633000000     5.423000000    -2.609000000
H     2.228000000     4.565000000    -2.308000000
O     4.682000000     9.472000000     1.374000000
H     4.313000000     9.898000000     0.601000000
H     4.291000000     8.598000000     1.376000000
O     5.277000000     3.778000000     4.365000000
H     5.398000000     4.536000000     4.938000000
H     4.443000000     3.941000000     3.926000000
O     3.923000000     7.257000000     3.659000000
H     3.029000000     7.583000000     3.558000000
H     3.880000000     6.346000000     3.369000000
O     7.419000000     2.868000000    -0.441000000
H     6.920000000     2.131000000    -0.089000000
H     7.493000000     3.478000000     0.293000000
O     3.071000000     1.828000000     5.342000000
H     3.279000000     1.378000000     6.161000000
H     3.470000000     2.693000000     5.436000000
O     6.875000000     4.777000000     1.350000000
H     5.931000000     4.736000000     1.505000000
H     7.250000000     4.965000000     2.210000000
O     6.166000000    -0.319000000     4.079000000
H     6.109000000    -0.808000000     4.900000000
H     5.255000000    -0.155000000     3.835000000
O     2.278000000     9.673000000    -0.788000000
H     1.352000000     9.915000000    -0.756000000
H     2.333000000     8.870000000    -0.270000000
O     7.454000000     2.137000000     4.089000000
H     6.698000000     2.723000000     4.134000000
H     7.078000000     1.272000000     3.928000000
O     1.314000000     5.274000000     4.768000000
H     1.982000000     5.095000000     4.106000000
H     0.923000000     6.105000000     4.496000000
O     5.417000000     4.913000000    -1.504000000
H     4.676000000     4.839000000    -0.903000000
H     6.091000000     4.349000000    -1.125000000
O     5.362000000     5.721000000     6.008000000
H     4.835000000     6.500000000     5.827000000
H     6.263000000     6.043000000     6.034000000
O     0.855000000     7.900000000     4.206000000
H     1.098000000     8.657000000     3.673000000
H     0.371000000     8.271000000     4.943000000
O     3.764000000     0.509000000     2.959000000
H     3.450000000     1.105000000     3.640000000
H     3.034000000     0.445000000     2.343000000
O     3.225000000     7.221000000     0.157000000
H     2.797000000     6.776000000    -0.573000000
H     3.600000000     6.514000000     0.683000000
O     4.797000000     8.750000000     5.730000000
H     4.757000000     8.208000000     4.942000000
H     4.283000000     9.527000000     5.513000000
O     2.105000000     4.537000000     7.246000000
H     2.084000000     3.616000000     7.507000000
H     1.692000000     4.551000000     6.383000000
O     5.397000000     1.995000000     1.196000000
H     5.387000000     1.478000000     2.002000000
H     4.888000000     2.778000000     1.408000000
O     4.702000000     7.514000000    -2.585000000
H     4.961000000     6.636000000    -2.305000000
H     4.581000000     8.000000000    -1.769000000
