201
-1250.37312
C     1.203000000    -3.001000000     4.615000000
H     1.268000000    -3.944000000     4.078000000
C     0.034000000    -2.259000000     4.549000000
C     0.034000000    -1.020000000     5.192000000
H    -0.816000000    -0.371000000     4.995000000
C    -1.038000000    -2.583000000     3.501000000
O    -1.197000000    -3.967000000     3.203000000
H    -0.823000000    -2.020000000     2.581000000
O    -2.417000000    -2.151000000     3.858000000
C    -3.229000000    -1.581000000     2.835000000
C    -3.243000000    -0.179000000     2.818000000
H    -2.650000000     0.422000000     3.501000000
C    -4.017000000     0.486000000     1.899000000
O    -4.122000000     1.844000000     1.881000000
C    -4.803000000    -0.193000000     0.982000000
C    -5.655000000     0.482000000    -0.043000000
H    -6.306000000    -0.333000000    -0.367000000
C    -4.789000000     1.011000000    -1.158000000
C    -4.388000000     0.085000000    -2.121000000
H    -4.914000000    -0.862000000    -2.206000000
H    -6.273000000     1.253000000     0.421000000
C    -4.822000000    -1.611000000     1.060000000
H    -5.354000000    -2.225000000     0.338000000
C    -4.032000000    -2.298000000     1.974000000
C    -3.900000000    -3.786000000     1.849000000
H    -4.769000000    -4.279000000     1.408000000
H    -3.820000000    -4.094000000     2.893000000
C    -2.574000000    -4.263000000     1.141000000
C    -2.592000000    -4.496000000    -0.217000000
H    -3.543000000    -4.640000000    -0.723000000
C    -1.350000000    -4.336000000     1.859000000
C    -0.144000000    -4.500000000     1.150000000
H     0.828000000    -4.354000000     1.615000000
C    -0.168000000    -4.611000000    -0.258000000
O     1.029000000    -4.618000000    -0.932000000
C     1.514000000    -3.508000000    -1.731000000
C     2.982000000    -3.164000000    -1.565000000
C     3.679000000    -2.634000000    -2.642000000
H     3.204000000    -2.665000000    -3.619000000
C     3.512000000    -3.109000000    -0.288000000
H     2.846000000    -3.341000000     0.538000000
O     1.149000000    -3.759000000    -3.108000000
H     0.931000000    -2.666000000    -1.330000000
C    -1.406000000    -4.669000000    -0.953000000
C    -1.403000000    -4.852000000    -2.496000000
H    -2.371000000    -5.328000000    -2.668000000
H    -0.591000000    -5.509000000    -2.815000000
C    -1.237000000    -3.521000000    -3.239000000
C    -2.279000000    -2.731000000    -3.657000000
H    -3.270000000    -3.085000000    -3.382000000
C     0.028000000    -3.091000000    -3.524000000
C     0.238000000    -1.916000000    -4.170000000
H     1.272000000    -1.610000000    -4.307000000
C    -0.809000000    -1.058000000    -4.521000000
O    -0.513000000     0.231000000    -4.906000000
C    -0.523000000     1.307000000    -3.911000000
C     0.664000000     2.265000000    -4.000000000
C     1.803000000     1.934000000    -4.692000000
H     1.860000000     1.060000000    -5.337000000
C     0.609000000     3.509000000    -3.318000000
H    -0.330000000     3.891000000    -2.926000000
O    -1.790000000     1.993000000    -3.988000000
H    -0.432000000     0.824000000    -2.927000000
C    -2.105000000    -1.455000000    -4.202000000
C    -3.268000000    -0.510000000    -4.331000000
H    -4.147000000    -1.157000000    -4.360000000
H    -3.266000000     0.096000000    -5.240000000
C    -3.489000000     0.367000000    -3.131000000
C    -2.865000000     1.626000000    -3.129000000
C    -3.224000000     2.594000000    -2.174000000
H    -2.638000000     3.509000000    -2.132000000
C    -4.118000000     2.237000000    -1.177000000
O    -4.096000000     3.083000000    -0.105000000
C    -3.322000000     2.676000000     1.080000000
H    -2.363000000     2.227000000     0.784000000
C    -2.784000000     3.830000000     1.860000000
C    -2.327000000     3.669000000     3.224000000
H    -2.393000000     2.679000000     3.667000000
C    -2.490000000     5.046000000     1.179000000
H    -2.717000000     5.150000000     0.121000000
C    -1.744000000     6.044000000     1.785000000
O    -1.121000000     7.037000000     1.019000000
C    -1.439000000     5.900000000     3.134000000
H    -0.816000000     6.674000000     3.575000000
C    -1.613000000     4.734000000     3.843000000
O    -1.147000000     4.615000000     5.132000000
C    -1.151000000     3.416000000     5.797000000
C    -0.102000000     2.503000000     5.615000000
H     0.655000000     2.622000000     4.845000000
C    -2.085000000     3.187000000     6.794000000
H    -2.887000000     3.878000000     7.041000000
C    -2.059000000     1.993000000     7.487000000
H    -2.752000000     1.899000000     8.320000000
C    -0.937000000     1.160000000     7.421000000
H    -0.786000000     0.360000000     8.142000000
C     0.095000000     1.459000000     6.530000000
O     1.163000000     0.596000000     6.553000000
C     1.152000000    -0.583000000     5.944000000
C     2.239000000    -1.409000000     6.135000000
H     3.183000000    -1.071000000     6.554000000
C     2.277000000    -2.613000000     5.402000000
O     3.447000000    -3.349000000     5.436000000
C     3.942000000    -3.872000000     4.259000000
C     4.318000000    -2.994000000     3.218000000
H     4.209000000    -1.915000000     3.292000000
C     4.328000000    -5.238000000     4.204000000
H     3.986000000    -5.900000000     4.995000000
C     4.878000000    -5.710000000     3.055000000
H     5.009000000    -6.785000000     2.965000000
C     5.198000000    -4.875000000     2.005000000
H     5.634000000    -5.278000000     1.094000000
C     4.957000000    -3.504000000     2.113000000
O     5.371000000    -2.692000000     1.099000000
C     4.776000000    -2.618000000    -0.093000000
C     5.527000000    -2.126000000    -1.205000000
H     6.513000000    -1.681000000    -1.099000000
C     4.944000000    -2.082000000    -2.493000000
O     5.711000000    -1.824000000    -3.569000000
C     5.385000000    -0.964000000    -4.587000000
C     4.735000000     0.221000000    -4.389000000
H     4.370000000     0.503000000    -3.405000000
C     5.978000000    -1.222000000    -5.834000000
H     6.674000000    -2.051000000    -5.936000000
C     5.831000000    -0.308000000    -6.868000000
H     6.281000000    -0.505000000    -7.838000000
C     5.101000000     0.820000000    -6.688000000
H     5.042000000     1.573000000    -7.469000000
C     4.590000000     1.189000000    -5.449000000
O     4.119000000     2.412000000    -5.198000000
C     2.951000000     2.726000000    -4.544000000
C     2.886000000     3.941000000    -3.824000000
H     3.783000000     4.555000000    -3.814000000
C     1.678000000     4.402000000    -3.299000000
O     1.622000000     5.676000000    -2.802000000
C     0.476000000     6.196000000    -2.314000000
C    -0.441000000     6.906000000    -3.112000000
H    -0.343000000     6.841000000    -4.192000000
C    -1.591000000     7.494000000    -2.563000000
H    -2.310000000     7.917000000    -3.260000000
C    -1.731000000     7.541000000    -1.193000000
H    -2.603000000     8.043000000    -0.782000000
C    -0.803000000     6.954000000    -0.365000000
C     0.227000000     6.160000000    -0.964000000
H     0.845000000     5.549000000    -0.311000000
O     5.834000000     5.749000000    -3.158000000
H     6.297000000     6.291000000    -2.519000000
H     5.638000000     4.939000000    -2.688000000
O     6.196000000    -0.356000000     2.319000000
H     5.809000000     0.230000000     1.668000000
H     5.618000000    -1.119000000     2.327000000
O     3.408000000     7.315000000     5.029000000
H     2.894000000     6.877000000     4.351000000
H     3.396000000     6.707000000     5.769000000
O     7.953000000     3.002000000    -0.640000000
H     7.725000000     2.946000000     0.288000000
H     8.588000000     3.716000000    -0.687000000
O     4.478000000     1.377000000     4.032000000
H     5.122000000     1.015000000     3.423000000
H     4.659000000     0.935000000     4.862000000
O     6.483000000     2.576000000     1.556000000
H     5.675000000     2.090000000     1.394000000
H     6.376000000     2.930000000     2.439000000
O     2.251000000     8.683000000    -2.314000000
H     2.224000000     9.100000000    -1.453000000
H     2.625000000     7.818000000    -2.150000000
O     2.765000000     3.653000000     3.986000000
H     2.974000000     4.031000000     3.132000000
H     3.387000000     2.932000000     4.087000000
O     5.289000000     9.320000000     0.174000000
H     5.007000000     9.115000000     1.065000000
H     5.059000000     8.543000000    -0.336000000
O     6.443000000     3.950000000     3.872000000
H     6.742000000     4.603000000     3.239000000
H     6.129000000     4.465000000     4.616000000
O     5.415000000     3.250000000    -1.919000000
H     4.742000000     3.310000000    -1.240000000
H     6.212000000     3.012000000    -1.446000000
O     8.753000000     1.414000000     3.135000000
H     9.404000000     2.008000000     2.762000000
H     7.947000000     1.612000000     2.657000000
O     4.773000000     0.989000000     0.374000000
H     3.973000000     0.518000000     0.610000000
H     4.463000000     1.806000000    -0.016000000
O     7.632000000     6.568000000     1.181000000
H     6.784000000     6.127000000     1.120000000
H     7.762000000     6.957000000     0.316000000
O     4.034000000     6.772000000    -0.898000000
H     4.591000000     6.335000000    -0.253000000
H     3.354000000     6.131000000    -1.102000000
O     2.007000000     6.693000000     2.765000000
H     1.822000000     7.389000000     2.135000000
H     2.152000000     5.914000000     2.227000000
O     2.207000000     5.060000000     6.221000000
H     1.828000000     4.498000000     6.897000000
H     2.477000000     4.456000000     5.530000000
O     5.099000000     5.688000000     1.367000000
H     5.052000000     4.735000000     1.295000000
H     4.352000000     5.925000000     1.916000000
O     1.921000000     9.068000000     1.042000000
H     2.818000000     9.002000000     1.370000000
H     1.820000000     9.991000000     0.806000000
