201
-1218.23480
C    -5.529000000     0.322000000    -1.513000000
H    -5.206000000     1.072000000    -2.231000000
C    -5.059000000     0.555000000    -0.221000000
C    -5.429000000    -0.386000000     0.779000000
H    -5.110000000    -0.291000000     1.814000000
C    -4.122000000     1.683000000     0.166000000
O    -4.374000000     2.836000000    -0.642000000
H    -3.071000000     1.364000000     0.102000000
O    -4.339000000     2.031000000     1.541000000
C    -3.169000000     2.312000000     2.288000000
C    -2.664000000     1.301000000     3.083000000
H    -3.156000000     0.336000000     2.998000000
C    -1.468000000     1.447000000     3.753000000
O    -0.910000000     0.463000000     4.500000000
C    -0.805000000     2.618000000     3.688000000
C     0.474000000     2.824000000     4.485000000
H     0.485000000     3.827000000     4.917000000
C     1.801000000     2.448000000     3.898000000
C     2.464000000     3.365000000     3.049000000
H     2.111000000     4.387000000     2.937000000
H     0.365000000     2.246000000     5.405000000
C    -1.312000000     3.661000000     2.823000000
H    -0.693000000     4.555000000     2.836000000
C    -2.499000000     3.474000000     2.144000000
C    -3.078000000     4.559000000     1.181000000
H    -2.735000000     5.548000000     1.495000000
H    -4.165000000     4.652000000     1.235000000
C    -2.548000000     4.394000000    -0.234000000
C    -1.309000000     4.855000000    -0.587000000
H    -0.646000000     5.461000000     0.026000000
C    -3.258000000     3.537000000    -1.113000000
C    -2.624000000     3.159000000    -2.266000000
H    -3.141000000     2.495000000    -2.954000000
C    -1.373000000     3.579000000    -2.608000000
O    -0.815000000     3.036000000    -3.692000000
C     0.149000000     1.987000000    -3.477000000
C    -0.067000000     0.877000000    -4.460000000
C     1.007000000     0.243000000    -4.992000000
H     2.026000000     0.519000000    -4.734000000
C    -1.385000000     0.417000000    -4.783000000
H    -2.243000000     0.922000000    -4.347000000
O     1.489000000     2.538000000    -3.600000000
H    -0.015000000     1.530000000    -2.490000000
C    -0.720000000     4.503000000    -1.804000000
C     0.657000000     5.028000000    -2.118000000
H     0.892000000     6.004000000    -1.689000000
H     0.811000000     5.245000000    -3.178000000
C     1.849000000     4.077000000    -1.711000000
C     2.604000000     4.399000000    -0.553000000
H     2.499000000     5.344000000    -0.026000000
C     2.155000000     2.915000000    -2.460000000
C     3.259000000     2.172000000    -2.127000000
H     3.492000000     1.293000000    -2.722000000
C     3.928000000     2.371000000    -0.879000000
O     4.853000000     1.528000000    -0.457000000
C     4.558000000     0.537000000     0.562000000
C     5.025000000    -0.917000000     0.191000000
C     4.894000000    -1.408000000    -1.135000000
H     4.492000000    -0.743000000    -1.895000000
C     5.459000000    -1.780000000     1.240000000
H     5.304000000    -1.481000000     2.273000000
O     5.072000000     1.040000000     1.767000000
H     3.463000000     0.542000000     0.667000000
C     3.564000000     3.519000000    -0.064000000
C     4.329000000     3.777000000     1.315000000
H     4.320000000     4.829000000     1.609000000
H     5.340000000     3.397000000     1.153000000
C     3.616000000     2.906000000     2.296000000
C     4.121000000     1.592000000     2.556000000
C     3.428000000     0.726000000     3.382000000
H     3.763000000    -0.298000000     3.525000000
C     2.246000000     1.091000000     3.973000000
O     1.445000000     0.071000000     4.561000000
C     0.201000000    -0.288000000     3.945000000
H     0.297000000    -0.016000000     2.883000000
C    -0.078000000    -1.757000000     3.958000000
C    -1.357000000    -2.325000000     3.822000000
H    -2.243000000    -1.699000000     3.893000000
C     0.998000000    -2.613000000     4.182000000
H     2.005000000    -2.207000000     4.233000000
C     0.815000000    -4.014000000     4.160000000
O     1.958000000    -4.748000000     4.346000000
C    -0.439000000    -4.567000000     3.763000000
H    -0.596000000    -5.640000000     3.696000000
C    -1.552000000    -3.686000000     3.661000000
O    -2.780000000    -4.257000000     3.640000000
C    -4.002000000    -3.650000000     3.641000000
C    -4.674000000    -3.412000000     2.425000000
H    -4.080000000    -3.581000000     1.531000000
C    -4.724000000    -3.301000000     4.785000000
H    -4.229000000    -3.455000000     5.740000000
C    -5.991000000    -2.784000000     4.769000000
H    -6.453000000    -2.626000000     5.740000000
C    -6.654000000    -2.608000000     3.542000000
H    -7.637000000    -2.162000000     3.415000000
C    -5.888000000    -2.895000000     2.411000000
O    -6.423000000    -2.604000000     1.186000000
C    -6.055000000    -1.588000000     0.348000000
C    -6.437000000    -1.743000000    -0.912000000
H    -6.821000000    -2.730000000    -1.159000000
C    -6.191000000    -0.817000000    -1.880000000
O    -6.553000000    -1.054000000    -3.223000000
C    -5.983000000    -0.626000000    -4.361000000
C    -4.663000000    -1.140000000    -4.557000000
H    -4.089000000    -1.748000000    -3.863000000
C    -6.615000000     0.206000000    -5.290000000
H    -7.628000000     0.581000000    -5.164000000
C    -5.863000000     0.628000000    -6.392000000
H    -6.258000000     1.288000000    -7.161000000
C    -4.599000000     0.153000000    -6.602000000
H    -3.988000000     0.440000000    -7.455000000
C    -4.010000000    -0.738000000    -5.689000000
O    -2.747000000    -1.234000000    -5.845000000
C    -1.538000000    -0.665000000    -5.622000000
C    -0.435000000    -1.406000000    -6.100000000
H    -0.512000000    -2.404000000    -6.524000000
C     0.833000000    -0.996000000    -5.630000000
O     1.931000000    -1.788000000    -6.105000000
C     3.185000000    -1.723000000    -5.576000000
C     3.395000000    -2.390000000    -4.364000000
H     2.515000000    -2.672000000    -3.792000000
C     4.266000000    -1.068000000    -6.262000000
H     4.146000000    -0.647000000    -7.257000000
C     5.504000000    -1.094000000    -5.685000000
H     6.345000000    -0.546000000    -6.102000000
C     5.682000000    -1.663000000    -4.440000000
H     6.641000000    -1.637000000    -3.930000000
C     4.717000000    -2.492000000    -3.883000000
O     5.040000000    -3.176000000    -2.704000000
C     5.114000000    -2.716000000    -1.435000000
C     5.544000000    -3.537000000    -0.386000000
H     5.649000000    -4.593000000    -0.623000000
C     5.667000000    -3.106000000     0.889000000
O     5.978000000    -4.006000000     1.854000000
C     5.280000000    -4.017000000     3.078000000
C     6.000000000    -3.831000000     4.261000000
H     6.994000000    -3.392000000     4.251000000
C     5.363000000    -3.734000000     5.456000000
H     5.938000000    -3.469000000     6.340000000
C     3.950000000    -3.985000000     5.490000000
H     3.390000000    -4.015000000     6.421000000
C     3.288000000    -4.368000000     4.362000000
C     3.972000000    -4.340000000     3.107000000
H     3.342000000    -4.498000000     2.235000000
O     4.980000000    -9.122000000     2.218000000
H     4.226000000    -8.561000000     2.033000000
H     4.936000000    -9.808000000     1.552000000
O    -0.503000000    -7.178000000    -2.068000000
H    -1.432000000    -7.374000000    -2.188000000
H    -0.424000000    -6.949000000    -1.142000000
O    -0.397000000   -10.016000000     4.755000000
H    -0.187000000    -9.308000000     4.147000000
H    -0.876000000    -9.589000000     5.465000000
O     2.884000000    -7.650000000     1.319000000
H     2.538000000    -6.930000000     0.793000000
H     2.388000000    -7.609000000     2.137000000
O     1.596000000    -5.877000000    -3.420000000
H     1.084000000    -6.485000000    -2.887000000
H     2.471000000    -5.896000000    -3.032000000
O     3.408000000    -8.491000000    -4.442000000
H     3.278000000    -7.630000000    -4.044000000
H     2.595000000    -8.963000000    -4.261000000
O     3.733000000    -6.588000000    -2.126000000
H     4.533000000    -6.901000000    -1.704000000
H     3.246000000    -6.155000000    -1.424000000
O     2.502000000    -8.847000000     4.351000000
H     1.599000000    -9.070000000     4.124000000
H     2.425000000    -8.312000000     5.141000000
O     2.277000000    -9.770000000    -0.784000000
H     2.996000000   -10.217000000    -0.337000000
H     2.155000000    -8.959000000    -0.291000000
O    -2.464000000    -6.279000000     0.028000000
H    -1.648000000    -6.192000000     0.520000000
H    -2.430000000    -5.575000000    -0.619000000
O    -1.422000000   -10.433000000    -2.651000000
H    -2.372000000   -10.533000000    -2.712000000
H    -1.286000000    -9.489000000    -2.563000000
O    -2.967000000    -7.820000000    -2.465000000
H    -3.266000000    -7.893000000    -3.371000000
H    -3.624000000    -8.297000000    -1.957000000
O     0.448000000    -5.094000000    -6.375000000
H     0.774000000    -5.374000000    -5.520000000
H    -0.410000000    -5.511000000    -6.453000000
O    -1.808000000    -4.717000000    -2.690000000
H    -1.884000000    -5.670000000    -2.644000000
H    -1.447000000    -4.547000000    -3.560000000
O     0.298000000    -8.290000000     2.278000000
H    -0.008000000    -7.616000000     1.671000000
H    -0.026000000    -9.111000000     1.907000000
O     1.221000000    -9.964000000    -3.384000000
H     1.607000000    -9.789000000    -2.526000000
H     0.450000000   -10.498000000    -3.196000000
O    -5.218000000    -6.555000000     0.311000000
H    -5.054000000    -7.438000000    -0.021000000
H    -4.368000000    -6.262000000     0.641000000
O    -0.610000000   -10.550000000     1.251000000
H     0.313000000   -10.787000000     1.157000000
H    -1.055000000   -11.043000000     0.561000000
O    -3.349000000    -2.980000000    -1.282000000
H    -2.826000000    -3.592000000    -1.801000000
H    -2.842000000    -2.168000000    -1.287000000
