201
-1253.11539
C     1.375000000    -2.223000000     4.560000000
H     1.399000000    -3.280000000     4.307000000
C     0.188000000    -1.464000000     4.353000000
C     0.064000000    -0.161000000     4.798000000
H    -0.823000000     0.464000000     4.727000000
C    -0.982000000    -2.113000000     3.520000000
O    -0.936000000    -3.521000000     3.520000000
H    -0.870000000    -1.725000000     2.497000000
O    -2.301000000    -1.609000000     3.971000000
C    -3.220000000    -1.196000000     3.006000000
C    -3.523000000     0.181000000     2.935000000
H    -3.222000000     0.924000000     3.669000000
C    -4.237000000     0.636000000     1.832000000
O    -4.322000000     2.024000000     1.733000000
C    -4.884000000    -0.268000000     0.927000000
C    -5.605000000     0.138000000    -0.353000000
H    -6.159000000    -0.698000000    -0.786000000
C    -4.621000000     0.531000000    -1.464000000
C    -4.341000000    -0.407000000    -2.489000000
H    -4.819000000    -1.383000000    -2.489000000
H    -6.274000000     0.969000000    -0.119000000
C    -4.647000000    -1.675000000     1.114000000
H    -5.217000000    -2.366000000     0.498000000
C    -3.788000000    -2.102000000     2.093000000
C    -3.595000000    -3.632000000     2.385000000
H    -4.411000000    -4.202000000     1.936000000
H    -3.497000000    -3.785000000     3.462000000
C    -2.282000000    -4.119000000     1.700000000
C    -2.209000000    -4.474000000     0.345000000
H    -3.116000000    -4.569000000    -0.246000000
C    -1.037000000    -4.121000000     2.366000000
C     0.148000000    -4.456000000     1.682000000
H     1.076000000    -4.171000000     2.170000000
C     0.115000000    -4.797000000     0.335000000
O     1.268000000    -4.849000000    -0.465000000
C     1.631000000    -3.605000000    -1.167000000
C     3.076000000    -3.208000000    -0.901000000
C     3.787000000    -2.428000000    -1.822000000
H     3.261000000    -2.173000000    -2.738000000
C     3.767000000    -3.622000000     0.248000000
H     3.231000000    -4.227000000     0.974000000
O     1.525000000    -3.850000000    -2.594000000
H     1.027000000    -2.700000000    -1.010000000
C    -1.119000000    -4.822000000    -0.373000000
C    -1.183000000    -5.063000000    -1.935000000
H    -2.150000000    -5.449000000    -2.265000000
H    -0.500000000    -5.895000000    -2.115000000
C    -0.911000000    -3.833000000    -2.788000000
C    -2.070000000    -3.070000000    -3.178000000
H    -3.084000000    -3.327000000    -2.882000000
C     0.346000000    -3.392000000    -3.111000000
C     0.469000000    -2.276000000    -3.945000000
H     1.481000000    -1.921000000    -4.121000000
C    -0.601000000    -1.554000000    -4.340000000
O    -0.366000000    -0.310000000    -4.980000000
C    -0.426000000     0.864000000    -4.128000000
C     0.643000000     1.871000000    -4.338000000
C     1.790000000     1.517000000    -5.032000000
H     1.801000000     0.496000000    -5.406000000
C     0.513000000     3.088000000    -3.651000000
H    -0.359000000     3.445000000    -3.108000000
O    -1.744000000     1.469000000    -4.233000000
H    -0.351000000     0.442000000    -3.115000000
C    -1.902000000    -1.921000000    -3.946000000
C    -3.050000000    -1.048000000    -4.480000000
H    -3.918000000    -1.661000000    -4.735000000
H    -2.864000000    -0.511000000    -5.412000000
C    -3.441000000    -0.045000000    -3.433000000
C    -2.768000000     1.171000000    -3.365000000
C    -3.124000000     2.102000000    -2.427000000
H    -2.682000000     3.095000000    -2.411000000
C    -4.108000000     1.820000000    -1.520000000
O    -4.196000000     2.793000000    -0.489000000
C    -3.401000000     2.599000000     0.773000000
H    -2.579000000     1.892000000     0.588000000
C    -2.759000000     3.968000000     1.255000000
C    -2.580000000     4.116000000     2.657000000
H    -2.857000000     3.294000000     3.313000000
C    -2.354000000     4.978000000     0.358000000
H    -2.511000000     4.743000000    -0.692000000
C    -1.818000000     6.127000000     0.855000000
O    -1.470000000     7.096000000    -0.040000000
C    -1.556000000     6.331000000     2.220000000
H    -1.172000000     7.301000000     2.525000000
C    -1.815000000     5.234000000     3.111000000
O    -1.616000000     5.385000000     4.513000000
C    -1.342000000     4.327000000     5.343000000
C    -0.146000000     3.682000000     5.255000000
H     0.586000000     4.008000000     4.521000000
C    -2.319000000     3.894000000     6.240000000
H    -3.275000000     4.411000000     6.229000000
C    -2.018000000     2.833000000     7.156000000
H    -2.711000000     2.583000000     7.955000000
C    -0.825000000     2.142000000     7.028000000
H    -0.526000000     1.327000000     7.683000000
C     0.101000000     2.580000000     6.062000000
O     1.239000000     1.821000000     5.818000000
C     1.173000000     0.461000000     5.396000000
C     2.357000000    -0.266000000     5.612000000
H     3.157000000     0.171000000     6.205000000
C     2.418000000    -1.592000000     5.276000000
O     3.566000000    -2.272000000     5.645000000
C     4.071000000    -3.266000000     4.864000000
C     4.745000000    -2.917000000     3.704000000
H     4.844000000    -1.846000000     3.541000000
C     3.940000000    -4.620000000     5.160000000
H     3.443000000    -4.934000000     6.074000000
C     4.379000000    -5.614000000     4.299000000
H     4.273000000    -6.664000000     4.561000000
C     4.980000000    -5.319000000     3.120000000
H     5.239000000    -6.093000000     2.403000000
C     5.219000000    -3.902000000     2.847000000
O     5.758000000    -3.526000000     1.682000000
C     5.075000000    -3.149000000     0.557000000
C     5.753000000    -2.469000000    -0.457000000
H     6.835000000    -2.359000000    -0.434000000
C     5.134000000    -2.062000000    -1.640000000
O     5.718000000    -1.370000000    -2.629000000
C     5.209000000    -0.981000000    -3.801000000
C     4.940000000     0.386000000    -4.009000000
H     5.078000000     1.196000000    -3.297000000
C     5.064000000    -1.896000000    -4.893000000
H     5.353000000    -2.932000000    -4.731000000
C     4.982000000    -1.446000000    -6.189000000
H     5.137000000    -2.135000000    -7.016000000
C     4.656000000    -0.118000000    -6.373000000
H     4.489000000     0.238000000    -7.386000000
C     4.565000000     0.785000000    -5.310000000
O     4.116000000     2.018000000    -5.543000000
C     2.895000000     2.366000000    -4.978000000
C     2.760000000     3.619000000    -4.409000000
H     3.568000000     4.314000000    -4.625000000
C     1.613000000     3.989000000    -3.760000000
O     1.494000000     5.313000000    -3.390000000
C     0.332000000     5.989000000    -3.047000000
C    -0.535000000     6.533000000    -4.018000000
H    -0.377000000     6.471000000    -5.092000000
C    -1.758000000     7.139000000    -3.663000000
H    -2.448000000     7.595000000    -4.368000000
C    -2.079000000     7.264000000    -2.334000000
H    -2.985000000     7.761000000    -1.997000000
C    -1.239000000     6.795000000    -1.351000000
C     0.011000000     6.187000000    -1.715000000
H     0.653000000     5.786000000    -0.934000000
O     7.202000000     6.455000000    -2.829000000
H     7.609000000     7.089000000    -2.239000000
H     6.267000000     6.510000000    -2.631000000
O     6.045000000     8.969000000     2.891000000
H     5.361000000     8.483000000     3.352000000
H     5.860000000     8.821000000     1.963000000
O     6.339000000    -0.354000000     2.095000000
H     5.386000000    -0.298000000     2.018000000
H     6.505000000    -1.259000000     2.360000000
O     4.272000000     7.015000000     4.776000000
H     3.482000000     7.275000000     5.249000000
H     4.020000000     6.220000000     4.306000000
O     4.642000000     1.619000000     4.269000000
H     5.330000000     2.154000000     3.874000000
H     5.022000000     1.307000000     5.090000000
O     6.655000000     5.738000000     2.779000000
H     7.342000000     5.748000000     2.113000000
H     5.990000000     6.340000000     2.446000000
O     6.941000000     3.053000000     3.336000000
H     7.416000000     2.815000000     2.540000000
H     6.550000000     3.903000000     3.136000000
O     3.217000000     7.832000000    -2.909000000
H     3.511000000     6.987000000    -2.569000000
H     4.023000000     8.335000000    -3.027000000
O     3.513000000     4.161000000     4.082000000
H     3.146000000     4.341000000     3.216000000
H     3.403000000     3.218000000     4.197000000
O     6.012000000     2.769000000    -0.928000000
H     5.266000000     2.944000000    -0.354000000
H     6.628000000     2.285000000    -0.379000000
O     3.792000000     0.043000000     2.079000000
H     3.274000000     0.562000000     1.464000000
H     3.701000000     0.502000000     2.915000000
O     7.966000000     5.777000000     0.372000000
H     7.178000000     5.767000000    -0.171000000
H     8.469000000     5.018000000     0.077000000
O     6.772000000     3.290000000    -3.444000000
H     6.622000000     2.867000000    -2.599000000
H     6.698000000     4.226000000    -3.261000000
O     4.671000000     6.067000000    -1.369000000
H     4.290000000     6.660000000    -0.721000000
H     4.710000000     5.221000000    -0.924000000
O     1.378000000     6.745000000     2.902000000
H     1.265000000     7.312000000     2.139000000
H     1.794000000     5.956000000     2.554000000
O     2.994000000     4.934000000     6.903000000
H     3.933000000     4.998000000     7.077000000
H     2.938000000     4.605000000     6.005000000
O     1.718000000     7.720000000     5.668000000
H     0.989000000     8.241000000     6.005000000
H     1.335000000     7.205000000     4.957000000
O     4.397000000     6.849000000     1.702000000
H     4.106000000     5.988000000     1.404000000
H     3.595000000     7.289000000     1.984000000
O     1.665000000     8.745000000     1.324000000
H     1.296000000     8.700000000     0.442000000
H     2.026000000     9.629000000     1.388000000
