201
-1240.31868
C    -0.236000000    -2.424000000     4.968000000
H     0.004000000    -3.256000000     4.310000000
C    -1.298000000    -1.657000000     4.652000000
C    -1.589000000    -0.470000000     5.389000000
H    -2.451000000     0.122000000     5.092000000
C    -2.010000000    -1.925000000     3.319000000
O    -1.931000000    -3.315000000     2.938000000
H    -1.557000000    -1.244000000     2.583000000
O    -3.494000000    -1.620000000     3.368000000
C    -4.072000000    -1.180000000     2.190000000
C    -4.255000000     0.185000000     2.072000000
H    -3.953000000     0.916000000     2.818000000
C    -4.616000000     0.765000000     0.893000000
O    -4.514000000     2.130000000     0.819000000
C    -5.000000000     0.018000000    -0.230000000
C    -5.294000000     0.628000000    -1.567000000
H    -5.919000000    -0.079000000    -2.117000000
C    -4.068000000     0.878000000    -2.368000000
C    -3.697000000    -0.104000000    -3.331000000
H    -4.247000000    -1.036000000    -3.432000000
H    -5.896000000     1.507000000    -1.327000000
C    -4.903000000    -1.359000000    -0.136000000
H    -5.210000000    -1.996000000    -0.962000000
C    -4.398000000    -1.947000000     1.088000000
C    -4.255000000    -3.455000000     1.168000000
H    -4.874000000    -3.920000000     0.397000000
H    -4.421000000    -3.829000000     2.180000000
C    -2.827000000    -3.783000000     0.749000000
C    -2.625000000    -4.218000000    -0.553000000
H    -3.385000000    -4.453000000    -1.293000000
C    -1.753000000    -3.684000000     1.650000000
C    -0.528000000    -3.912000000     1.223000000
H     0.275000000    -3.710000000     1.927000000
C    -0.245000000    -4.307000000    -0.039000000
O     1.088000000    -4.556000000    -0.495000000
C     1.748000000    -3.474000000    -1.008000000
C     3.056000000    -3.167000000    -0.400000000
C     3.920000000    -2.332000000    -1.029000000
H     3.657000000    -1.852000000    -1.968000000
C     3.319000000    -3.499000000     0.928000000
H     2.632000000    -4.145000000     1.468000000
O     1.933000000    -3.630000000    -2.436000000
H     1.223000000    -2.519000000    -0.860000000
C    -1.311000000    -4.463000000    -0.959000000
C    -0.955000000    -4.819000000    -2.456000000
H    -1.844000000    -5.268000000    -2.904000000
H    -0.203000000    -5.610000000    -2.419000000
C    -0.405000000    -3.649000000    -3.243000000
C    -1.431000000    -2.899000000    -3.894000000
H    -2.457000000    -3.252000000    -3.832000000
C     0.939000000    -3.181000000    -3.270000000
C     1.231000000    -2.107000000    -4.103000000
H     2.253000000    -1.738000000    -4.145000000
C     0.272000000    -1.362000000    -4.699000000
O     0.551000000    -0.174000000    -5.182000000
C     0.492000000     0.955000000    -4.355000000
C     1.683000000     1.934000000    -4.552000000
C     2.964000000     1.358000000    -4.760000000
H     3.005000000     0.315000000    -5.065000000
C     1.433000000     3.275000000    -4.286000000
H     0.458000000     3.716000000    -4.098000000
O    -0.773000000     1.647000000    -4.623000000
H     0.336000000     0.710000000    -3.294000000
C    -1.037000000    -1.756000000    -4.613000000
C    -2.152000000    -0.912000000    -5.132000000
H    -2.962000000    -1.600000000    -5.382000000
H    -1.915000000    -0.331000000    -6.026000000
C    -2.574000000     0.090000000    -4.121000000
C    -1.940000000     1.352000000    -3.944000000
C    -2.267000000     2.303000000    -2.975000000
H    -1.686000000     3.220000000    -2.916000000
C    -3.370000000     2.077000000    -2.174000000
O    -3.675000000     2.966000000    -1.143000000
C    -3.309000000     2.595000000     0.230000000
H    -2.644000000     1.738000000     0.050000000
C    -2.648000000     3.766000000     0.927000000
C    -2.571000000     3.742000000     2.313000000
H    -3.184000000     3.078000000     2.917000000
C    -1.714000000     4.528000000     0.241000000
H    -1.623000000     4.321000000    -0.822000000
C    -0.925000000     5.482000000     0.860000000
O    -0.065000000     6.363000000     0.123000000
C    -0.953000000     5.551000000     2.259000000
H    -0.293000000     6.196000000     2.834000000
C    -1.779000000     4.687000000     2.900000000
O    -1.940000000     4.912000000     4.249000000
C    -2.282000000     3.938000000     5.134000000
C    -1.461000000     2.851000000     5.534000000
H    -0.426000000     2.759000000     5.214000000
C    -3.478000000     4.077000000     5.795000000
H    -4.104000000     4.935000000     5.565000000
C    -3.952000000     3.056000000     6.585000000
H    -4.983000000     3.126000000     6.924000000
C    -3.069000000     2.068000000     7.090000000
H    -3.404000000     1.355000000     7.839000000
C    -1.783000000     2.005000000     6.600000000
O    -0.943000000     1.054000000     7.110000000
C    -0.827000000    -0.120000000     6.466000000
C     0.337000000    -0.866000000     6.671000000
H     1.037000000    -0.550000000     7.440000000
C     0.642000000    -2.020000000     5.932000000
O     1.721000000    -2.842000000     6.249000000
C     2.495000000    -3.725000000     5.599000000
C     3.097000000    -3.231000000     4.392000000
H     2.849000000    -2.236000000     4.032000000
C     2.851000000    -4.978000000     6.188000000
H     2.410000000    -5.238000000     7.147000000
C     3.703000000    -5.769000000     5.435000000
H     4.086000000    -6.748000000     5.712000000
C     4.194000000    -5.316000000     4.206000000
H     4.870000000    -5.929000000     3.616000000
C     4.051000000    -4.038000000     3.789000000
O     4.835000000    -3.475000000     2.814000000
C     4.456000000    -3.029000000     1.577000000
C     5.367000000    -2.261000000     0.871000000
H     6.255000000    -1.942000000     1.410000000
C     5.106000000    -1.875000000    -0.436000000
O     6.064000000    -1.129000000    -1.196000000
C     6.033000000    -0.979000000    -2.580000000
C     5.706000000     0.321000000    -3.108000000
H     5.236000000     1.084000000    -2.494000000
C     6.579000000    -1.891000000    -3.508000000
H     6.830000000    -2.891000000    -3.163000000
C     6.672000000    -1.633000000    -4.888000000
H     7.036000000    -2.418000000    -5.546000000
C     6.250000000    -0.341000000    -5.326000000
H     6.162000000    -0.112000000    -6.385000000
C     5.791000000     0.619000000    -4.437000000
O     5.347000000     1.754000000    -4.995000000
C     4.062000000     2.207000000    -4.720000000
C     3.914000000     3.526000000    -4.296000000
H     4.793000000     4.156000000    -4.185000000
C     2.613000000     4.054000000    -4.125000000
O     2.538000000     5.374000000    -3.620000000
C     1.471000000     6.026000000    -3.121000000
C     0.743000000     6.952000000    -3.891000000
H     0.869000000     7.027000000    -4.968000000
C    -0.372000000     7.563000000    -3.334000000
H    -0.908000000     8.246000000    -3.988000000
C    -0.735000000     7.320000000    -1.998000000
H    -1.702000000     7.711000000    -1.692000000
C     0.015000000     6.464000000    -1.214000000
C     1.163000000     5.881000000    -1.736000000
H     1.769000000     5.226000000    -1.115000000
O     4.727000000     8.375000000    -0.480000000
H     4.938000000     7.456000000    -0.642000000
H     4.285000000     8.373000000     0.369000000
O     6.011000000     4.469000000     1.317000000
H     6.558000000     3.692000000     1.200000000
H     5.115000000     4.150000000     1.204000000
O     7.232000000     6.426000000    -0.201000000
H     6.478000000     6.722000000    -0.710000000
H     6.858000000     5.858000000     0.473000000
O     2.632000000     6.452000000     1.335000000
H     2.645000000     5.495000000     1.349000000
H     1.762000000     6.675000000     1.003000000
O     9.260000000     5.946000000     1.599000000
H     8.458000000     6.337000000     1.254000000
H     9.871000000     6.679000000     1.674000000
O     6.946000000     0.125000000     4.076000000
H     7.421000000     0.930000000     4.279000000
H     7.576000000    -0.411000000     3.594000000
O     2.502000000     1.771000000     5.096000000
H     1.933000000     1.244000000     4.534000000
H     2.515000000     2.634000000     4.681000000
O     5.562000000     0.878000000     1.770000000
H     5.968000000     0.371000000     2.473000000
H     4.891000000     1.402000000     2.208000000
O     2.247000000     9.628000000    -2.029000000
H     3.013000000    10.201000000    -2.000000000
H     2.584000000     8.765000000    -1.789000000
O     1.823000000     4.207000000     4.026000000
H     2.263000000     4.204000000     3.176000000
H     1.671000000     5.133000000     4.214000000
O     6.225000000     6.453000000     3.393000000
H     5.751000000     7.180000000     2.990000000
H     6.083000000     5.715000000     2.800000000
O     7.441000000     3.526000000    -1.701000000
H     6.549000000     3.873000000    -1.697000000
H     7.542000000     3.115000000    -0.843000000
O     4.352000000     8.236000000     2.368000000
H     3.735000000     7.561000000     2.085000000
H     3.876000000     8.732000000     3.034000000
O     1.247000000     0.126000000     3.197000000
H     1.703000000    -0.149000000     2.402000000
H     0.347000000     0.286000000     2.914000000
O     1.750000000     2.427000000     7.691000000
H     1.869000000     2.236000000     6.760000000
H     2.599000000     2.227000000     8.086000000
O     4.984000000     1.850000000     6.130000000
H     4.090000000     1.647000000     5.854000000
H     5.528000000     1.593000000     5.386000000
O     4.463000000     5.603000000    -1.389000000
H     4.362000000     5.316000000    -2.297000000
H     4.357000000     4.804000000    -0.872000000
O     0.682000000     6.459000000     5.143000000
H    -0.021000000     5.859000000     4.893000000
H     0.229000000     7.258000000     5.415000000
O     7.693000000     2.003000000     0.464000000
H     8.358000000     1.366000000     0.726000000
H     6.871000000     1.639000000     0.792000000
