201
-1252.08458
C     0.964000000    -2.707000000     4.662000000
H     1.288000000    -3.658000000     4.247000000
C    -0.216000000    -2.088000000     4.356000000
C    -0.559000000    -0.865000000     4.939000000
H    -1.434000000    -0.261000000     4.713000000
C    -1.104000000    -2.588000000     3.228000000
O    -0.853000000    -3.988000000     2.965000000
H    -1.026000000    -1.970000000     2.321000000
O    -2.537000000    -2.542000000     3.579000000
C    -3.450000000    -2.225000000     2.566000000
C    -3.843000000    -0.882000000     2.577000000
H    -3.499000000    -0.340000000     3.454000000
C    -4.498000000    -0.352000000     1.457000000
O    -4.797000000     0.964000000     1.389000000
C    -4.875000000    -1.116000000     0.359000000
C    -5.562000000    -0.529000000    -0.912000000
H    -6.060000000    -1.415000000    -1.312000000
C    -4.524000000     0.064000000    -1.873000000
C    -4.044000000    -0.665000000    -2.889000000
H    -4.538000000    -1.607000000    -3.109000000
H    -6.332000000     0.194000000    -0.634000000
C    -4.400000000    -2.397000000     0.332000000
H    -4.567000000    -2.994000000    -0.561000000
C    -3.712000000    -3.002000000     1.386000000
C    -3.147000000    -4.373000000     1.302000000
H    -3.792000000    -5.017000000     0.700000000
H    -3.149000000    -4.761000000     2.322000000
C    -1.740000000    -4.370000000     0.781000000
C    -1.562000000    -4.685000000    -0.552000000
H    -2.379000000    -4.788000000    -1.262000000
C    -0.621000000    -4.360000000     1.678000000
C     0.644000000    -4.430000000     1.179000000
H     1.499000000    -4.263000000     1.829000000
C     0.852000000    -4.487000000    -0.210000000
O     2.142000000    -4.294000000    -0.690000000
C     2.464000000    -3.117000000    -1.405000000
C     3.801000000    -2.555000000    -1.047000000
C     4.529000000    -1.707000000    -1.940000000
H     4.152000000    -1.485000000    -2.935000000
C     4.194000000    -2.775000000     0.276000000
H     3.609000000    -3.220000000     1.076000000
O     2.337000000    -3.224000000    -2.828000000
H     1.793000000    -2.324000000    -1.044000000
C    -0.261000000    -4.677000000    -1.052000000
C    -0.171000000    -4.750000000    -2.574000000
H    -1.078000000    -5.270000000    -2.889000000
H     0.664000000    -5.378000000    -2.894000000
C    -0.050000000    -3.385000000    -3.296000000
C    -1.250000000    -2.831000000    -3.857000000
H    -2.177000000    -3.390000000    -3.760000000
C     1.155000000    -2.717000000    -3.370000000
C     1.244000000    -1.550000000    -4.045000000
H     2.166000000    -1.009000000    -4.247000000
C     0.091000000    -1.047000000    -4.672000000
O     0.161000000     0.245000000    -5.062000000
C    -0.229000000     1.216000000    -4.038000000
C     0.725000000     2.369000000    -4.023000000
C     2.043000000     2.197000000    -4.403000000
H     2.402000000     1.226000000    -4.735000000
C     0.366000000     3.602000000    -3.495000000
H    -0.684000000     3.743000000    -3.253000000
O    -1.639000000     1.676000000    -4.295000000
H    -0.147000000     0.637000000    -3.106000000
C    -1.216000000    -1.612000000    -4.528000000
C    -2.480000000    -0.985000000    -4.943000000
H    -3.204000000    -1.729000000    -5.281000000
H    -2.348000000    -0.384000000    -5.846000000
C    -3.067000000    -0.158000000    -3.769000000
C    -2.615000000     1.163000000    -3.601000000
C    -3.114000000     1.919000000    -2.541000000
H    -2.816000000     2.961000000    -2.459000000
C    -4.000000000     1.337000000    -1.677000000
O    -4.336000000     2.104000000    -0.600000000
C    -3.799000000     1.737000000     0.690000000
H    -2.801000000     1.285000000     0.586000000
C    -3.497000000     3.038000000     1.444000000
C    -3.449000000     3.144000000     2.869000000
H    -3.611000000     2.245000000     3.458000000
C    -3.194000000     4.208000000     0.671000000
H    -3.389000000     4.224000000    -0.398000000
C    -2.734000000     5.323000000     1.314000000
O    -2.223000000     6.411000000     0.700000000
C    -2.713000000     5.442000000     2.655000000
H    -2.433000000     6.376000000     3.134000000
C    -3.043000000     4.336000000     3.467000000
O    -3.013000000     4.457000000     4.868000000
C    -2.682000000     3.344000000     5.691000000
C    -1.413000000     2.887000000     5.827000000
H    -0.571000000     3.257000000     5.248000000
C    -3.731000000     2.817000000     6.454000000
H    -4.719000000     3.267000000     6.403000000
C    -3.447000000     1.738000000     7.305000000
H    -4.160000000     1.228000000     7.947000000
C    -2.276000000     1.074000000     7.123000000
H    -2.041000000     0.156000000     7.656000000
C    -1.175000000     1.683000000     6.462000000
O     0.093000000     1.010000000     6.323000000
C     0.383000000    -0.204000000     5.721000000
C     1.572000000    -0.793000000     6.067000000
H     2.343000000    -0.237000000     6.594000000
C     1.808000000    -2.088000000     5.619000000
O     3.023000000    -2.754000000     5.901000000
C     3.829000000    -3.264000000     4.914000000
C     4.432000000    -2.467000000     3.956000000
H     4.358000000    -1.390000000     4.079000000
C     3.995000000    -4.695000000     4.891000000
H     3.559000000    -5.313000000     5.672000000
C     4.596000000    -5.295000000     3.854000000
H     4.806000000    -6.360000000     3.815000000
C     5.276000000    -4.475000000     2.920000000
H     5.937000000    -4.939000000     2.192000000
C     5.220000000    -3.086000000     3.017000000
O     5.848000000    -2.335000000     2.022000000
C     5.380000000    -2.146000000     0.699000000
C     6.117000000    -1.346000000    -0.178000000
H     7.075000000    -0.927000000     0.119000000
C     5.708000000    -1.113000000    -1.498000000
O     6.509000000    -0.177000000    -2.174000000
C     6.263000000     0.380000000    -3.419000000
C     5.357000000     1.433000000    -3.502000000
H     4.945000000     1.843000000    -2.584000000
C     6.725000000    -0.159000000    -4.638000000
H     7.383000000    -1.020000000    -4.551000000
C     6.327000000     0.441000000    -5.842000000
H     6.621000000    -0.065000000    -6.759000000
C     5.478000000     1.565000000    -5.918000000
H     5.095000000     2.087000000    -6.791000000
C     4.967000000     2.020000000    -4.710000000
O     4.270000000     3.160000000    -4.656000000
C     2.964000000     3.222000000    -4.236000000
C     2.626000000     4.389000000    -3.576000000
H     3.325000000     5.219000000    -3.521000000
C     1.287000000     4.623000000    -3.278000000
O     1.069000000     5.868000000    -2.797000000
C    -0.146000000     6.249000000    -2.365000000
C    -1.026000000     6.870000000    -3.274000000
H    -0.728000000     7.008000000    -4.310000000
C    -2.334000000     7.185000000    -2.882000000
H    -2.972000000     7.793000000    -3.520000000
C    -2.784000000     6.891000000    -1.598000000
H    -3.766000000     7.250000000    -1.300000000
C    -1.849000000     6.405000000    -0.629000000
C    -0.559000000     6.113000000    -1.072000000
H     0.162000000     5.569000000    -0.467000000
O     5.602000000     5.154000000     2.257000000
H     4.842000000     4.975000000     1.703000000
H     5.399000000     5.987000000     2.681000000
O     1.919000000     5.658000000     4.098000000
H     2.180000000     5.669000000     3.177000000
H     1.984000000     4.738000000     4.354000000
O     6.346000000     2.104000000     1.984000000
H     7.235000000     1.827000000     1.762000000
H     6.452000000     2.986000000     2.340000000
O     0.602000000     7.886000000     4.116000000
H     1.195000000     8.279000000     4.757000000
H     0.825000000     6.955000000     4.123000000
O     4.431000000     8.051000000    -3.212000000
H     4.850000000     8.410000000    -3.994000000
H     5.031000000     7.370000000    -2.909000000
O     7.576000000     3.469000000    -2.927000000
H     8.323000000     3.190000000    -2.397000000
H     6.810000000     3.170000000    -2.437000000
O     2.485000000     7.731000000     0.438000000
H     2.396000000     7.399000000    -0.456000000
H     2.716000000     6.961000000     0.957000000
O     7.976000000     4.714000000     0.378000000
H     7.134000000     4.852000000     0.812000000
H     7.762000000     4.198000000    -0.399000000
O     2.002000000     2.735000000     4.770000000
H     2.522000000     2.230000000     4.144000000
H     1.789000000     2.111000000     5.463000000
O     6.315000000     6.314000000    -2.538000000
H     7.069000000     6.892000000    -2.659000000
H     6.692000000     5.436000000    -2.486000000
O     3.413000000     1.457000000     2.701000000
H     2.748000000     1.589000000     2.025000000
H     4.242000000     1.448000000     2.222000000
O     4.203000000     6.664000000     5.456000000
H     4.636000000     7.200000000     4.792000000
H     3.363000000     6.429000000     5.063000000
O     5.411000000     2.240000000     4.587000000
H     4.602000000     2.139000000     4.085000000
H     6.109000000     2.143000000     3.939000000
O     7.149000000     8.989000000    -0.717000000
H     6.271000000     9.370000000    -0.678000000
H     7.013000000     8.057000000    -0.550000000
O     0.539000000    10.161000000    -1.332000000
H    -0.192000000    10.674000000    -0.987000000
H     0.310000000     9.253000000    -1.133000000
O     5.324000000     7.660000000     3.097000000
H     4.612000000     8.098000000     2.631000000
H     5.957000000     8.356000000     3.277000000
O     2.287000000    10.174000000     1.726000000
H     1.895000000     9.319000000     1.549000000
H     3.072000000    10.195000000     1.179000000
O     6.001000000     3.193000000    -0.770000000
H     5.969000000     2.409000000    -0.223000000
H     5.250000000     3.714000000    -0.487000000
O     7.885000000     5.310000000     4.051000000
H     8.365000000     6.076000000     3.738000000
H     7.163000000     5.209000000     3.431000000
