201
-1236.87917
C     1.009000000    -2.494000000     4.358000000
H     1.841000000    -3.113000000     4.032000000
C    -0.264000000    -2.536000000     3.784000000
C    -1.299000000    -1.749000000     4.321000000
H    -2.289000000    -1.842000000     3.881000000
C    -0.625000000    -3.380000000     2.545000000
O     0.324000000    -4.399000000     2.252000000
H    -0.606000000    -2.588000000     1.782000000
O    -1.901000000    -3.972000000     2.515000000
C    -2.714000000    -3.641000000     1.378000000
C    -3.576000000    -2.532000000     1.395000000
H    -3.737000000    -1.988000000     2.323000000
C    -4.142000000    -2.011000000     0.184000000
O    -4.787000000    -0.819000000     0.198000000
C    -3.874000000    -2.711000000    -1.050000000
C    -4.352000000    -2.219000000    -2.444000000
H    -4.358000000    -3.039000000    -3.165000000
C    -3.486000000    -1.071000000    -3.056000000
C    -2.478000000    -1.418000000    -4.003000000
H    -2.379000000    -2.442000000    -4.354000000
H    -5.405000000    -1.928000000    -2.467000000
C    -3.117000000    -3.874000000    -1.008000000
H    -2.926000000    -4.444000000    -1.914000000
C    -2.480000000    -4.268000000     0.145000000
C    -1.436000000    -5.398000000     0.098000000
H    -1.724000000    -5.980000000    -0.780000000
H    -1.450000000    -6.034000000     0.986000000
C    -0.087000000    -4.808000000    -0.160000000
C     0.366000000    -4.667000000    -1.467000000
H    -0.213000000    -4.913000000    -2.353000000
C     0.792000000    -4.593000000     0.986000000
C     2.102000000    -4.133000000     0.710000000
H     2.671000000    -3.825000000     1.583000000
C     2.590000000    -4.070000000    -0.583000000
O     3.822000000    -3.627000000    -0.827000000
C     3.934000000    -2.203000000    -1.148000000
C     4.831000000    -1.409000000    -0.225000000
C     5.333000000    -0.162000000    -0.545000000
H     5.116000000     0.237000000    -1.533000000
C     5.160000000    -1.937000000     1.014000000
H     4.868000000    -2.930000000     1.346000000
O     4.097000000    -1.962000000    -2.553000000
H     2.978000000    -1.744000000    -0.856000000
C     1.743000000    -4.318000000    -1.690000000
C     2.159000000    -4.104000000    -3.175000000
H     1.523000000    -4.708000000    -3.826000000
H     3.135000000    -4.483000000    -3.487000000
C     2.004000000    -2.678000000    -3.608000000
C     0.876000000    -2.299000000    -4.318000000
H     0.079000000    -3.025000000    -4.460000000
C     2.935000000    -1.707000000    -3.375000000
C     2.715000000    -0.355000000    -3.718000000
H     3.437000000     0.394000000    -3.403000000
C     1.572000000     0.008000000    -4.357000000
O     1.298000000     1.290000000    -4.603000000
C     0.197000000     1.841000000    -3.785000000
C     0.592000000     3.241000000    -3.397000000
C     1.870000000     3.456000000    -2.871000000
H     2.560000000     2.631000000    -2.716000000
C    -0.323000000     4.334000000    -3.397000000
H    -1.341000000     4.175000000    -3.742000000
O    -1.032000000     1.847000000    -4.533000000
H     0.027000000     1.307000000    -2.838000000
C     0.701000000    -1.013000000    -4.796000000
C    -0.540000000    -0.624000000    -5.551000000
H    -0.890000000    -1.399000000    -6.235000000
H    -0.339000000     0.264000000    -6.153000000
C    -1.715000000    -0.379000000    -4.563000000
C    -1.888000000     0.902000000    -4.092000000
C    -2.899000000     1.303000000    -3.219000000
H    -3.017000000     2.354000000    -2.968000000
C    -3.667000000     0.306000000    -2.709000000
O    -4.521000000     0.645000000    -1.715000000
C    -4.160000000     0.412000000    -0.320000000
H    -3.081000000     0.257000000    -0.170000000
C    -4.488000000     1.643000000     0.579000000
C    -4.753000000     1.494000000     1.916000000
H    -4.908000000     0.513000000     2.358000000
C    -4.336000000     2.905000000     0.099000000
H    -3.830000000     3.076000000    -0.847000000
C    -4.626000000     4.072000000     0.808000000
O    -4.169000000     5.331000000     0.445000000
C    -5.113000000     3.944000000     2.145000000
H    -5.386000000     4.798000000     2.760000000
C    -5.076000000     2.622000000     2.663000000
O    -5.478000000     2.390000000     3.948000000
C    -5.036000000     1.352000000     4.718000000
C    -3.712000000     1.002000000     4.838000000
H    -2.905000000     1.604000000     4.428000000
C    -6.015000000     0.468000000     5.246000000
H    -7.072000000     0.679000000     5.108000000
C    -5.627000000    -0.641000000     5.994000000
H    -6.442000000    -1.295000000     6.295000000
C    -4.267000000    -0.927000000     6.215000000
H    -3.983000000    -1.857000000     6.702000000
C    -3.309000000    -0.060000000     5.611000000
O    -1.998000000    -0.140000000     6.027000000
C    -1.010000000    -0.846000000     5.356000000
C     0.265000000    -0.781000000     5.918000000
H     0.505000000    -0.055000000     6.690000000
C     1.234000000    -1.703000000     5.484000000
O     2.496000000    -1.461000000     5.956000000
C     3.518000000    -2.161000000     5.388000000
C     4.392000000    -1.555000000     4.492000000
H     4.209000000    -0.590000000     4.027000000
C     3.814000000    -3.409000000     5.984000000
H     3.049000000    -3.811000000     6.644000000
C     4.953000000    -4.152000000     5.488000000
H     5.128000000    -5.160000000     5.856000000
C     5.815000000    -3.535000000     4.536000000
H     6.672000000    -4.045000000     4.104000000
C     5.526000000    -2.267000000     4.082000000
O     6.376000000    -1.675000000     3.132000000
C     5.930000000    -1.174000000     1.913000000
C     6.391000000     0.054000000     1.590000000
H     7.005000000     0.581000000     2.316000000
C     6.035000000     0.590000000     0.378000000
O     6.497000000     1.871000000     0.175000000
C     6.105000000     2.695000000    -0.898000000
C     4.958000000     3.477000000    -0.839000000
H     4.410000000     3.614000000     0.089000000
C     6.746000000     2.515000000    -2.082000000
H     7.623000000     1.884000000    -2.199000000
C     6.266000000     3.092000000    -3.280000000
H     6.776000000     3.006000000    -4.236000000
C     5.111000000     3.854000000    -3.264000000
H     4.639000000     4.182000000    -4.186000000
C     4.529000000     4.132000000    -1.956000000
O     3.426000000     4.991000000    -1.865000000
C     2.252000000     4.760000000    -2.480000000
C     1.304000000     5.777000000    -2.605000000
H     1.602000000     6.766000000    -2.267000000
C     0.004000000     5.570000000    -2.938000000
O    -0.892000000     6.539000000    -2.769000000
C    -2.225000000     6.326000000    -2.391000000
C    -3.225000000     6.914000000    -3.207000000
H    -2.920000000     7.456000000    -4.098000000
C    -4.577000000     6.867000000    -2.788000000
H    -5.318000000     7.420000000    -3.360000000
C    -4.848000000     6.374000000    -1.534000000
H    -5.910000000     6.351000000    -1.302000000
C    -3.865000000     5.672000000    -0.818000000
C    -2.550000000     5.602000000    -1.240000000
H    -1.838000000     5.181000000    -0.535000000
O     4.980000000     3.735000000     8.732000000
H     4.749000000     3.736000000     7.803000000
H     4.160000000     3.934000000     9.183000000
O     1.875000000     6.524000000     0.542000000
H     2.679000000     6.510000000     0.024000000
H     1.835000000     5.658000000     0.947000000
O     6.585000000     0.891000000     4.877000000
H     5.700000000     1.069000000     4.558000000
H     6.744000000    -0.024000000     4.646000000
O     0.922000000     6.540000000     3.806000000
H     1.392000000     6.388000000     2.986000000
H     1.446000000     6.090000000     4.469000000
O     5.994000000    -1.016000000     8.180000000
H     5.253000000    -0.450000000     7.965000000
H     6.534000000    -0.489000000     8.770000000
O     0.224000000     3.345000000     0.673000000
H     0.066000000     2.486000000     1.065000000
H     1.141000000     3.318000000     0.400000000
O    -1.252000000     5.525000000     2.307000000
H    -0.757000000     5.748000000     3.096000000
H    -0.657000000     4.974000000     1.799000000
O     5.613000000     3.510000000     2.350000000
H     5.140000000     2.864000000     2.875000000
H     5.841000000     3.044000000     1.546000000
O     3.908000000     6.894000000     3.427000000
H     4.369000000     6.520000000     4.178000000
H     4.007000000     7.840000000     3.532000000
O     7.668000000     5.504000000     2.081000000
H     7.974000000     4.996000000     1.330000000
H     6.912000000     5.016000000     2.408000000
O     2.620000000     1.440000000     9.816000000
H     2.625000000     2.397000000     9.839000000
H     3.055000000     1.218000000     8.992000000
O     3.174000000     4.565000000     2.325000000
H     3.921000000     3.968000000     2.361000000
H     3.548000000     5.427000000     2.508000000
O     3.963000000     1.073000000     7.239000000
H     4.676000000     1.710000000     7.191000000
H     3.404000000     1.281000000     6.490000000
O     9.033000000     2.585000000     4.269000000
H     8.181000000     2.207000000     4.486000000
H     9.384000000     2.011000000     3.588000000
O     1.064000000     3.281000000     7.126000000
H     1.666000000     2.764000000     6.591000000
H     1.518000000     4.112000000     7.262000000
O    -2.067000000     5.438000000     5.304000000
H    -3.010000000     5.356000000     5.447000000
H    -1.788000000     4.561000000     5.040000000
O    -0.640000000     1.155000000     9.101000000
H     0.130000000     1.269000000     8.544000000
H    -0.472000000     1.714000000     9.860000000
O    -0.814000000     2.899000000     4.965000000
H    -0.130000000     2.835000000     4.298000000
H    -0.457000000     2.430000000     5.719000000
O     4.715000000     3.764000000     6.066000000
H     5.239000000     4.397000000     5.575000000
H     4.466000000     3.104000000     5.419000000
