201
-1225.04820
C     2.680000000    -1.383000000     4.176000000
H     3.382000000    -2.093000000     3.747000000
C     1.280000000    -1.668000000     4.032000000
C     0.384000000    -0.875000000     4.732000000
H    -0.668000000    -0.864000000     4.460000000
C     0.670000000    -2.664000000     3.043000000
O     1.504000000    -3.786000000     2.847000000
H     0.596000000    -2.107000000     2.098000000
O    -0.706000000    -3.098000000     3.438000000
C    -1.499000000    -3.335000000     2.429000000
C    -2.599000000    -2.443000000     2.386000000
H    -2.515000000    -1.605000000     3.073000000
C    -3.625000000    -2.497000000     1.423000000
O    -4.609000000    -1.546000000     1.465000000
C    -3.494000000    -3.404000000     0.435000000
C    -4.555000000    -3.378000000    -0.698000000
H    -4.634000000    -4.336000000    -1.216000000
C    -4.139000000    -2.294000000    -1.727000000
C    -3.452000000    -2.697000000    -2.865000000
H    -3.367000000    -3.778000000    -2.939000000
H    -5.547000000    -3.226000000    -0.268000000
C    -2.443000000    -4.326000000     0.450000000
H    -2.393000000    -5.150000000    -0.257000000
C    -1.488000000    -4.337000000     1.456000000
C    -0.305000000    -5.405000000     1.368000000
H    -0.486000000    -6.267000000     0.723000000
H    -0.036000000    -5.772000000     2.361000000
C     0.927000000    -4.750000000     0.721000000
C     1.046000000    -4.815000000    -0.652000000
H     0.376000000    -5.383000000    -1.293000000
C     1.832000000    -4.073000000     1.534000000
C     2.868000000    -3.465000000     0.906000000
H     3.619000000    -2.919000000     1.473000000
C     3.041000000    -3.521000000    -0.475000000
O     4.017000000    -2.669000000    -1.052000000
C     3.618000000    -1.479000000    -1.728000000
C     4.468000000    -0.265000000    -1.420000000
C     4.561000000     0.862000000    -2.206000000
H     4.004000000     0.759000000    -3.134000000
C     5.055000000    -0.244000000    -0.146000000
H     4.773000000    -1.014000000     0.567000000
O     3.524000000    -1.709000000    -3.181000000
H     2.597000000    -1.251000000    -1.388000000
C     2.163000000    -4.248000000    -1.296000000
C     2.304000000    -4.349000000    -2.784000000
H     1.898000000    -5.282000000    -3.182000000
H     3.388000000    -4.352000000    -2.918000000
C     1.627000000    -3.108000000    -3.479000000
C     0.230000000    -3.160000000    -3.784000000
H    -0.329000000    -4.066000000    -3.567000000
C     2.242000000    -1.880000000    -3.633000000
C     1.614000000    -0.775000000    -4.228000000
H     2.111000000     0.192000000    -4.230000000
C     0.241000000    -0.935000000    -4.523000000
O    -0.434000000     0.203000000    -4.879000000
C    -1.139000000     0.957000000    -3.875000000
C    -0.855000000     2.495000000    -3.893000000
C     0.242000000     3.131000000    -4.501000000
H     0.908000000     2.416000000    -4.976000000
C    -1.619000000     3.273000000    -3.026000000
H    -2.427000000     2.755000000    -2.517000000
O    -2.510000000     0.702000000    -4.059000000
H    -0.801000000     0.654000000    -2.873000000
C    -0.422000000    -2.102000000    -4.357000000
C    -1.845000000    -2.213000000    -4.745000000
H    -2.060000000    -3.278000000    -4.850000000
H    -2.112000000    -1.618000000    -5.621000000
C    -2.844000000    -1.718000000    -3.658000000
C    -3.091000000    -0.348000000    -3.367000000
C    -3.967000000     0.042000000    -2.373000000
H    -4.301000000     1.068000000    -2.240000000
C    -4.417000000    -0.933000000    -1.505000000
O    -5.182000000    -0.471000000    -0.461000000
C    -4.418000000    -0.399000000     0.798000000
H    -3.371000000    -0.244000000     0.498000000
C    -4.814000000     0.825000000     1.648000000
C    -4.775000000     0.704000000     3.016000000
H    -4.690000000    -0.309000000     3.399000000
C    -5.147000000     2.035000000     1.088000000
H    -5.058000000     2.033000000     0.004000000
C    -5.420000000     3.128000000     1.841000000
O    -5.587000000     4.342000000     1.275000000
C    -5.298000000     3.047000000     3.238000000
H    -5.451000000     3.973000000     3.785000000
C    -4.942000000     1.832000000     3.818000000
O    -4.745000000     1.803000000     5.152000000
C    -3.803000000     0.988000000     5.772000000
C    -2.435000000     1.336000000     5.620000000
H    -2.206000000     2.231000000     5.047000000
C    -4.149000000    -0.197000000     6.380000000
H    -5.172000000    -0.563000000     6.331000000
C    -3.239000000    -0.904000000     7.141000000
H    -3.468000000    -1.846000000     7.633000000
C    -1.871000000    -0.577000000     7.060000000
H    -1.145000000    -1.213000000     7.562000000
C    -1.479000000     0.571000000     6.309000000
O    -0.146000000     0.983000000     6.204000000
C     0.806000000     0.170000000     5.575000000
C     2.134000000     0.458000000     5.718000000
H     2.416000000     1.298000000     6.348000000
C     3.068000000    -0.347000000     5.060000000
O     4.324000000    -0.145000000     5.461000000
C     5.426000000    -0.399000000     4.651000000
C     5.388000000    -0.002000000     3.313000000
H     4.485000000     0.509000000     2.990000000
C     6.675000000    -0.765000000     5.262000000
H     6.721000000    -0.749000000     6.348000000
C     7.787000000    -0.870000000     4.415000000
H     8.801000000    -1.113000000     4.720000000
C     7.749000000    -0.423000000     3.147000000
H     8.685000000    -0.323000000     2.603000000
C     6.536000000     0.039000000     2.536000000
O     6.561000000     0.857000000     1.424000000
C     5.707000000     0.907000000     0.304000000
C     5.933000000     1.968000000    -0.640000000
H     6.476000000     2.849000000    -0.307000000
C     5.339000000     1.981000000    -1.872000000
O     5.562000000     2.985000000    -2.761000000
C     4.761000000     3.321000000    -3.875000000
C     3.587000000     4.033000000    -3.805000000
H     3.252000000     4.479000000    -2.872000000
C     5.161000000     2.879000000    -5.116000000
H     6.094000000     2.325000000    -5.179000000
C     4.476000000     3.173000000    -6.291000000
H     4.886000000     2.851000000    -7.244000000
C     3.244000000     3.912000000    -6.174000000
H     2.723000000     4.294000000    -7.048000000
C     2.788000000     4.303000000    -4.922000000
O     1.669000000     5.071000000    -4.819000000
C     0.532000000     4.482000000    -4.299000000
C    -0.231000000     5.258000000    -3.393000000
H     0.055000000     6.232000000    -3.004000000
C    -1.333000000     4.650000000    -2.809000000
O    -2.082000000     5.339000000    -1.893000000
C    -3.439000000     5.022000000    -1.679000000
C    -4.379000000     4.920000000    -2.724000000
H    -4.069000000     5.205000000    -3.726000000
C    -5.786000000     4.709000000    -2.395000000
H    -6.647000000     4.970000000    -3.005000000
C    -6.216000000     4.595000000    -1.023000000
H    -7.293000000     4.524000000    -0.888000000
C    -5.268000000     4.636000000    -0.034000000
C    -3.866000000     4.759000000    -0.388000000
H    -3.182000000     4.842000000     0.453000000
O     1.305000000     8.404000000    -1.792000000
H     1.049000000     7.547000000    -1.449000000
H     0.669000000     8.586000000    -2.483000000
O    -0.080000000     8.915000000    -4.270000000
H    -0.423000000     9.794000000    -4.110000000
H     0.763000000     9.062000000    -4.699000000
O     3.855000000     7.051000000     1.460000000
H     3.036000000     7.462000000     1.737000000
H     3.603000000     6.480000000     0.734000000
O     6.800000000     3.668000000     2.724000000
H     7.297000000     3.669000000     1.906000000
H     5.955000000     4.053000000     2.491000000
O     4.394000000     4.302000000     1.954000000
H     4.235000000     5.231000000     2.117000000
H     3.879000000     4.104000000     1.172000000
O     4.239000000     7.513000000    -5.422000000
H     4.561000000     7.264000000    -4.556000000
H     5.024000000     7.549000000    -5.968000000
O    -1.312000000     5.542000000     2.726000000
H    -1.158000000     5.865000000     3.614000000
H    -0.951000000     4.655000000     2.727000000
O     1.615000000     8.085000000     4.983000000
H     2.067000000     8.659000000     4.364000000
H     0.845000000     7.777000000     4.505000000
O    -2.909000000     8.275000000    -3.416000000
H    -1.981000000     8.171000000    -3.627000000
H    -2.913000000     8.742000000    -2.580000000
O    -1.255000000     7.405000000     0.740000000
H    -1.545000000     6.738000000     1.362000000
H    -0.508000000     7.007000000     0.292000000
O     1.396000000     8.170000000     1.539000000
H     1.145000000     7.424000000     0.996000000
H     0.768000000     8.855000000     1.311000000
O     4.049000000     7.720000000    -1.586000000
H     3.665000000     6.908000000    -1.255000000
H     3.297000000     8.280000000    -1.779000000
O     6.212000000     8.156000000     0.216000000
H     5.584000000     8.203000000    -0.505000000
H     5.695000000     7.856000000     0.964000000
O    -3.647000000     8.485000000     1.650000000
H    -3.015000000     8.014000000     1.108000000
H    -3.398000000     8.270000000     2.549000000
O     2.465000000     4.089000000     4.070000000
H     2.845000000     4.650000000     4.746000000
H     3.210000000     3.830000000     3.527000000
O    -0.099000000     3.172000000     3.170000000
H    -0.255000000     3.041000000     2.235000000
H     0.785000000     3.537000000     3.217000000
O     3.023000000     9.279000000     3.309000000
H     2.538000000     8.919000000     2.566000000
H     3.811000000     9.659000000     2.919000000
O    -0.328000000    10.188000000    -0.327000000
H    -1.194000000     9.808000000    -0.476000000
H     0.267000000     9.630000000    -0.828000000
O     5.891000000     6.655000000    -3.249000000
H     6.545000000     6.771000000    -2.560000000
H     5.077000000     6.976000000    -2.863000000
