201
-1242.16654
C    -4.201000000    -1.228000000    -1.330000000
H    -3.609000000    -0.545000000    -1.935000000
C    -4.340000000    -0.825000000    -0.033000000
C    -4.776000000    -1.744000000     0.918000000
H    -4.865000000    -1.474000000     1.968000000
C    -3.942000000     0.526000000     0.484000000
O    -4.496000000     1.532000000    -0.508000000
H    -2.844000000     0.487000000     0.445000000
O    -4.383000000     0.769000000     1.789000000
C    -3.575000000     1.601000000     2.571000000
C    -2.778000000     0.966000000     3.501000000
H    -2.901000000    -0.095000000     3.704000000
C    -1.822000000     1.590000000     4.194000000
O    -1.000000000     0.838000000     5.031000000
C    -1.489000000     2.888000000     3.830000000
C    -0.328000000     3.576000000     4.496000000
H    -0.506000000     4.653000000     4.467000000
C     1.051000000     3.279000000     3.868000000
C     1.454000000     3.980000000     2.807000000
H     0.847000000     4.787000000     2.403000000
H    -0.334000000     3.126000000     5.491000000
C    -2.236000000     3.542000000     2.880000000
H    -1.906000000     4.548000000     2.634000000
C    -3.265000000     2.947000000     2.226000000
C    -3.975000000     3.748000000     1.130000000
H    -3.788000000     4.784000000     1.421000000
H    -5.054000000     3.585000000     1.086000000
C    -3.356000000     3.549000000    -0.233000000
C    -2.485000000     4.502000000    -0.776000000
H    -2.195000000     5.375000000    -0.196000000
C    -3.718000000     2.480000000    -1.036000000
C    -3.277000000     2.261000000    -2.322000000
H    -3.497000000     1.392000000    -2.937000000
C    -2.212000000     3.160000000    -2.804000000
O    -1.625000000     2.916000000    -3.990000000
C    -0.390000000     2.245000000    -3.951000000
C    -0.326000000     1.120000000    -5.047000000
C     0.898000000     0.542000000    -5.380000000
H     1.879000000     0.793000000    -4.984000000
C    -1.573000000     0.688000000    -5.559000000
H    -2.538000000     1.033000000    -5.199000000
O     0.793000000     3.066000000    -4.080000000
H    -0.313000000     1.738000000    -2.978000000
C    -1.792000000     4.202000000    -1.965000000
C    -0.664000000     5.099000000    -2.414000000
H    -0.743000000     6.122000000    -2.039000000
H    -0.763000000     5.107000000    -3.502000000
C     0.696000000     4.429000000    -2.029000000
C     1.261000000     4.756000000    -0.873000000
H     0.745000000     5.487000000    -0.255000000
C     1.281000000     3.441000000    -2.839000000
C     2.479000000     2.833000000    -2.429000000
H     2.942000000     2.049000000    -3.023000000
C     3.040000000     3.138000000    -1.148000000
O     4.168000000     2.413000000    -0.708000000
C     3.874000000     1.535000000     0.347000000
C     4.299000000     0.075000000     0.000000000
C     3.884000000    -0.496000000    -1.181000000
H     3.115000000    -0.073000000    -1.823000000
C     5.039000000    -0.725000000     0.942000000
H     5.399000000    -0.318000000     1.883000000
O     4.307000000     2.015000000     1.657000000
H     2.780000000     1.509000000     0.453000000
C     2.459000000     4.156000000    -0.383000000
C     3.020000000     4.570000000     0.977000000
H     2.758000000     5.611000000     1.177000000
H     4.105000000     4.557000000     0.852000000
C     2.606000000     3.676000000     2.120000000
C     3.325000000     2.532000000     2.437000000
C     2.979000000     1.789000000     3.522000000
H     3.512000000     0.857000000     3.692000000
C     1.790000000     2.099000000     4.219000000
O     1.279000000     1.137000000     5.012000000
C     0.243000000     0.366000000     4.473000000
H     0.182000000     0.550000000     3.390000000
C     0.447000000    -1.122000000     4.620000000
C    -0.618000000    -2.043000000     4.293000000
H    -1.547000000    -1.624000000     3.916000000
C     1.697000000    -1.683000000     4.979000000
H     2.504000000    -1.027000000     5.292000000
C     1.937000000    -3.040000000     4.953000000
O     3.103000000    -3.664000000     5.252000000
C     0.935000000    -3.883000000     4.522000000
H     1.169000000    -4.927000000     4.333000000
C    -0.337000000    -3.395000000     4.290000000
O    -1.255000000    -4.398000000     3.812000000
C    -2.622000000    -4.255000000     3.865000000
C    -3.334000000    -4.055000000     2.693000000
H    -2.716000000    -3.916000000     1.809000000
C    -3.265000000    -4.682000000     4.979000000
H    -2.677000000    -4.899000000     5.867000000
C    -4.681000000    -4.776000000     5.055000000
H    -5.258000000    -4.980000000     5.954000000
C    -5.371000000    -4.543000000     3.843000000
H    -6.455000000    -4.582000000     3.780000000
C    -4.716000000    -4.203000000     2.649000000
O    -5.467000000    -4.013000000     1.509000000
C    -5.095000000    -3.076000000     0.524000000
C    -5.046000000    -3.455000000    -0.775000000
H    -5.150000000    -4.501000000    -1.051000000
C    -4.552000000    -2.532000000    -1.726000000
O    -4.191000000    -3.026000000    -3.005000000
C    -4.434000000    -2.288000000    -4.110000000
C    -3.466000000    -1.926000000    -4.993000000
H    -2.424000000    -2.192000000    -4.834000000
C    -5.739000000    -1.719000000    -4.424000000
H    -6.488000000    -1.758000000    -3.637000000
C    -5.916000000    -0.835000000    -5.478000000
H    -6.857000000    -0.296000000    -5.546000000
C    -4.874000000    -0.608000000    -6.361000000
H    -4.916000000     0.139000000    -7.150000000
C    -3.674000000    -1.200000000    -6.165000000
O    -2.677000000    -0.906000000    -6.995000000
C    -1.467000000    -0.362000000    -6.541000000
C    -0.229000000    -0.925000000    -6.786000000
H    -0.131000000    -1.738000000    -7.501000000
C     0.917000000    -0.402000000    -6.358000000
O     2.176000000    -0.949000000    -6.774000000
C     3.249000000    -1.211000000    -5.908000000
C     3.023000000    -1.862000000    -4.709000000
H     2.037000000    -2.194000000    -4.393000000
C     4.473000000    -0.673000000    -6.272000000
H     4.553000000    -0.253000000    -7.271000000
C     5.563000000    -0.839000000    -5.453000000
H     6.493000000    -0.397000000    -5.802000000
C     5.281000000    -1.364000000    -4.192000000
H     6.090000000    -1.318000000    -3.466000000
C     4.057000000    -1.859000000    -3.793000000
O     3.791000000    -2.376000000    -2.562000000
C     4.224000000    -1.796000000    -1.458000000
C     4.878000000    -2.592000000    -0.564000000
H     5.216000000    -3.604000000    -0.777000000
C     5.317000000    -2.054000000     0.611000000
O     6.043000000    -2.857000000     1.462000000
C     5.779000000    -2.886000000     2.807000000
C     6.880000000    -2.858000000     3.685000000
H     7.853000000    -2.690000000     3.232000000
C     6.699000000    -3.121000000     5.025000000
H     7.419000000    -3.082000000     5.839000000
C     5.441000000    -3.489000000     5.502000000
H     5.354000000    -3.700000000     6.565000000
C     4.301000000    -3.400000000     4.701000000
C     4.476000000    -3.169000000     3.306000000
H     3.629000000    -3.262000000     2.632000000
O    -1.145000000    -7.542000000    -0.974000000
H    -0.545000000    -6.796000000    -0.956000000
H    -1.767000000    -7.332000000    -1.670000000
O    -2.078000000    -8.477000000     1.438000000
H    -2.406000000    -9.296000000     1.068000000
H    -1.753000000    -7.987000000     0.683000000
O     0.544000000    -6.021000000     1.887000000
H     0.897000000    -5.751000000     1.039000000
H     0.121000000    -5.234000000     2.232000000
O    -1.349000000    -4.288000000    -4.051000000
H    -1.805000000    -5.130000000    -4.028000000
H    -1.088000000    -4.134000000    -3.143000000
O     0.105000000   -11.351000000    -0.131000000
H     0.934000000   -11.717000000     0.177000000
H     0.214000000   -10.404000000    -0.040000000
O     3.002000000    -6.079000000    -2.087000000
H     2.396000000    -5.611000000    -1.512000000
H     2.746000000    -5.815000000    -2.971000000
O     4.602000000    -8.162000000    -1.354000000
H     4.626000000    -8.372000000    -0.420000000
H     4.104000000    -7.346000000    -1.403000000
O    -5.832000000    -5.400000000    -4.046000000
H    -5.412000000    -5.036000000    -3.267000000
H    -5.231000000    -6.083000000    -4.344000000
O     2.514000000    -5.183000000    -4.477000000
H     1.855000000    -4.714000000    -4.989000000
H     3.343000000    -4.771000000    -4.719000000
O    -3.428000000    -6.615000000    -4.421000000
H    -3.264000000    -6.264000000    -3.546000000
H    -2.974000000    -7.457000000    -4.432000000
O     0.352000000    -4.399000000    -6.042000000
H    -0.121000000    -4.122000000    -6.826000000
H    -0.308000000    -4.395000000    -5.349000000
O     3.677000000    -6.551000000     1.567000000
H     3.502000000    -6.656000000     2.502000000
H     2.887000000    -6.139000000     1.220000000
O    -1.754000000    -8.747000000    -3.900000000
H    -2.450000000    -9.152000000    -3.382000000
H    -1.620000000    -9.348000000    -4.632000000
O     0.998000000    -8.591000000    -2.926000000
H     0.157000000    -8.536000000    -3.380000000
H     1.419000000    -7.749000000    -3.101000000
O     0.996000000    -8.754000000     0.148000000
H     0.686000000    -8.180000000    -0.553000000
H     0.834000000    -8.259000000     0.952000000
O    -4.410000000    -6.739000000     0.916000000
H    -5.086000000    -6.331000000     1.457000000
H    -3.780000000    -7.090000000     1.545000000
O     0.426000000    -7.297000000    -5.989000000
H    -0.497000000    -7.520000000    -5.871000000
H     0.415000000    -6.392000000    -6.302000000
O    -0.008000000    -8.638000000     3.272000000
H    -0.594000000    -8.744000000     2.523000000
H     0.085000000    -7.690000000     3.371000000
O    -3.379000000    -5.922000000    -1.546000000
H    -2.729000000    -5.223000000    -1.465000000
H    -3.705000000    -6.049000000    -0.655000000
