201
-1281.95174
C     2.965000000    -0.859000000     4.217000000
H     3.771000000    -1.412000000     3.740000000
C     1.551000000    -1.103000000     4.167000000
C     0.683000000    -0.266000000     4.834000000
H    -0.376000000    -0.502000000     4.770000000
C     1.128000000    -2.336000000     3.350000000
O     2.250000000    -3.284000000     3.094000000
H     0.714000000    -1.937000000     2.412000000
O     0.005000000    -3.028000000     3.956000000
C    -1.028000000    -3.320000000     3.097000000
C    -2.177000000    -2.483000000     3.206000000
H    -2.308000000    -1.690000000     3.938000000
C    -3.214000000    -2.681000000     2.313000000
O    -4.234000000    -1.799000000     2.367000000
C    -3.112000000    -3.673000000     1.296000000
C    -4.199000000    -3.691000000     0.245000000
H    -4.128000000    -4.713000000    -0.132000000
C    -3.945000000    -2.679000000    -0.894000000
C    -3.235000000    -3.038000000    -2.041000000
H    -2.945000000    -4.081000000    -2.136000000
H    -5.221000000    -3.673000000     0.630000000
C    -1.995000000    -4.545000000     1.241000000
H    -1.978000000    -5.355000000     0.517000000
C    -0.908000000    -4.331000000     2.116000000
C     0.364000000    -5.119000000     2.012000000
H     0.129000000    -6.171000000     1.835000000
H     0.772000000    -5.268000000     3.014000000
C     1.402000000    -4.467000000     1.166000000
C     1.449000000    -4.726000000    -0.209000000
H     0.803000000    -5.520000000    -0.575000000
C     2.313000000    -3.617000000     1.748000000
C     3.323000000    -3.048000000     0.959000000
H     3.958000000    -2.284000000     1.400000000
C     3.326000000    -3.306000000    -0.436000000
O     4.060000000    -2.553000000    -1.272000000
C     3.448000000    -1.422000000    -2.001000000
C     4.291000000    -0.142000000    -1.917000000
C     4.365000000     0.799000000    -2.945000000
H     3.815000000     0.601000000    -3.861000000
C     4.913000000     0.156000000    -0.740000000
H     4.812000000    -0.520000000     0.105000000
O     3.125000000    -1.792000000    -3.345000000
H     2.532000000    -1.144000000    -1.460000000
C     2.333000000    -4.043000000    -1.040000000
C     2.233000000    -4.411000000    -2.500000000
H     1.825000000    -5.417000000    -2.615000000
H     3.267000000    -4.379000000    -2.849000000
C     1.329000000    -3.384000000    -3.306000000
C    -0.087000000    -3.614000000    -3.521000000
H    -0.589000000    -4.526000000    -3.210000000
C     1.887000000    -2.182000000    -3.713000000
C     1.135000000    -1.196000000    -4.440000000
H     1.514000000    -0.277000000    -4.880000000
C    -0.242000000    -1.421000000    -4.565000000
O    -0.999000000    -0.328000000    -4.967000000
C    -1.585000000     0.430000000    -3.875000000
C    -1.408000000     1.887000000    -4.104000000
C    -0.272000000     2.362000000    -4.755000000
H     0.444000000     1.671000000    -5.192000000
C    -2.408000000     2.774000000    -3.632000000
H    -3.304000000     2.387000000    -3.153000000
O    -2.987000000     0.072000000    -3.845000000
H    -1.221000000     0.178000000    -2.868000000
C    -0.889000000    -2.605000000    -4.177000000
C    -2.371000000    -2.765000000    -4.315000000
H    -2.516000000    -3.839000000    -4.450000000
H    -2.663000000    -2.412000000    -5.306000000
C    -3.080000000    -2.163000000    -3.076000000
C    -3.387000000    -0.823000000    -2.929000000
C    -3.963000000    -0.401000000    -1.741000000
H    -4.126000000     0.662000000    -1.584000000
C    -4.307000000    -1.355000000    -0.769000000
O    -4.984000000    -0.866000000     0.313000000
C    -4.053000000    -0.655000000     1.473000000
H    -3.010000000    -0.675000000     1.123000000
C    -4.302000000     0.644000000     2.108000000
C    -4.312000000     0.759000000     3.469000000
H    -4.210000000    -0.120000000     4.100000000
C    -4.471000000     1.784000000     1.349000000
H    -4.447000000     1.759000000     0.262000000
C    -4.575000000     3.054000000     1.940000000
O    -4.609000000     4.246000000     1.222000000
C    -4.596000000     3.181000000     3.326000000
H    -4.555000000     4.136000000     3.844000000
C    -4.451000000     2.013000000     4.092000000
O    -4.398000000     2.108000000     5.479000000
C    -3.334000000     1.670000000     6.257000000
C    -2.009000000     1.848000000     5.883000000
H    -1.744000000     2.277000000     4.919000000
C    -3.598000000     1.106000000     7.516000000
H    -4.616000000     1.036000000     7.890000000
C    -2.611000000     0.863000000     8.414000000
H    -2.815000000     0.356000000     9.354000000
C    -1.307000000     0.887000000     8.015000000
H    -0.533000000     0.573000000     8.712000000
C    -0.994000000     1.413000000     6.754000000
O     0.276000000     1.654000000     6.336000000
C     1.145000000     0.788000000     5.644000000
C     2.520000000     1.000000000     5.747000000
H     2.810000000     1.863000000     6.340000000
C     3.385000000     0.163000000     5.070000000
O     4.740000000     0.543000000     5.102000000
C     5.574000000     0.412000000     4.032000000
C     5.348000000     1.083000000     2.851000000
H     4.475000000     1.731000000     2.835000000
C     6.741000000    -0.371000000     4.074000000
H     6.968000000    -0.945000000     4.970000000
C     7.638000000    -0.534000000     2.978000000
H     8.517000000    -1.171000000     3.028000000
C     7.345000000     0.199000000     1.793000000
H     8.028000000     0.079000000     0.956000000
C     6.257000000     1.083000000     1.821000000
O     5.962000000     1.876000000     0.730000000
C     5.513000000     1.408000000    -0.567000000
C     5.613000000     2.309000000    -1.542000000
H     6.022000000     3.308000000    -1.417000000
C     4.943000000     2.029000000    -2.729000000
O     4.805000000     3.097000000    -3.626000000
C     4.106000000     3.039000000    -4.795000000
C     2.831000000     3.545000000    -4.762000000
H     2.477000000     4.026000000    -3.854000000
C     4.612000000     2.513000000    -5.974000000
H     5.569000000     1.999000000    -6.017000000
C     3.814000000     2.530000000    -7.068000000
H     4.156000000     1.984000000    -7.944000000
C     2.529000000     3.068000000    -7.097000000
H     1.926000000     3.147000000    -7.998000000
C     2.028000000     3.614000000    -5.905000000
O     0.808000000     4.189000000    -5.864000000
C    -0.106000000     3.734000000    -4.911000000
C    -1.073000000     4.596000000    -4.463000000
H    -0.985000000     5.671000000    -4.598000000
C    -2.126000000     4.154000000    -3.676000000
O    -2.971000000     5.087000000    -3.179000000
C    -4.023000000     4.750000000    -2.356000000
C    -5.281000000     4.549000000    -2.938000000
H    -5.407000000     4.706000000    -4.007000000
C    -6.347000000     4.181000000    -2.078000000
H    -7.324000000     3.959000000    -2.499000000
C    -6.014000000     3.993000000    -0.733000000
H    -6.816000000     3.771000000    -0.034000000
C    -4.746000000     4.195000000    -0.149000000
C    -3.795000000     4.577000000    -1.007000000
H    -2.749000000     4.565000000    -0.710000000
O    -0.109000000     9.009000000     4.796000000
H     0.143000000     9.052000000     3.873000000
H     0.411000000     8.289000000     5.153000000
O     5.815000000     8.459000000    -0.089000000
H     5.004000000     8.968000000    -0.078000000
H     5.532000000     7.562000000    -0.267000000
O     0.321000000     6.827000000    -0.221000000
H     0.510000000     6.350000000     0.587000000
H     1.166000000     7.187000000    -0.489000000
O     3.802000000     4.849000000     7.009000000
H     4.261000000     4.307000000     6.367000000
H     4.326000000     4.772000000     7.806000000
O     2.014000000     6.804000000     2.696000000
H     1.240000000     7.060000000     3.197000000
H     1.725000000     6.054000000     2.177000000
O     3.070000000     8.875000000     0.832000000
H     2.541000000     8.153000000     1.171000000
H     3.249000000     9.421000000     1.598000000
O     3.542000000     3.841000000     4.244000000
H     2.693000000     4.112000000     4.593000000
H     3.380000000     3.684000000     3.314000000
O    -2.784000000     7.420000000     2.925000000
H    -2.240000000     6.633000000     2.968000000
H    -3.503000000     7.246000000     3.533000000
O     4.720000000     6.617000000     2.569000000
H     3.777000000     6.561000000     2.725000000
H     4.822000000     6.408000000     1.641000000
O     2.421000000     7.649000000     5.514000000
H     2.609000000     7.798000000     6.441000000
H     2.805000000     6.793000000     5.326000000
O     0.342000000     9.548000000     2.180000000
H     0.425000000    10.488000000     2.020000000
H    -0.345000000     9.262000000     1.578000000
O    -1.616000000     8.426000000     0.735000000
H    -1.397000000     7.577000000     0.351000000
H    -2.211000000     8.218000000     1.455000000
O     7.960000000     3.855000000     1.576000000
H     7.441000000     4.127000000     2.333000000
H     8.709000000     3.393000000     1.954000000
O     4.859000000     8.649000000     4.515000000
H     3.938000000     8.629000000     4.776000000
H     4.969000000     7.874000000     3.964000000
O     5.277000000     4.717000000     0.659000000
H     4.453000000     4.390000000     1.019000000
H     5.896000000     3.998000000     0.786000000
O     0.736000000     4.267000000     5.156000000
H     0.754000000     4.714000000     6.003000000
H     0.440000000     3.380000000     5.359000000
O     6.477000000     4.198000000     3.807000000
H     5.790000000     4.406000000     3.174000000
H     6.003000000     3.955000000     4.603000000
O    -0.825000000     5.239000000     3.321000000
H    -0.240000000     5.147000000     4.074000000
H    -0.304000000     4.945000000     2.575000000
O     5.106000000     6.141000000    -1.672000000
H     5.228000000     5.570000000    -0.913000000
H     5.974000000     6.200000000    -2.069000000
