201
-1229.81527
C     2.823000000    -2.463000000     3.616000000
H     3.452000000    -2.512000000     2.730000000
C     1.420000000    -2.675000000     3.458000000
C     0.656000000    -2.451000000     4.645000000
H    -0.415000000    -2.630000000     4.587000000
C     0.895000000    -3.220000000     2.185000000
O     1.858000000    -4.124000000     1.609000000
H     0.665000000    -2.408000000     1.480000000
O    -0.329000000    -3.960000000     2.437000000
C    -1.333000000    -4.033000000     1.413000000
C    -2.527000000    -3.381000000     1.797000000
H    -2.656000000    -2.999000000     2.806000000
C    -3.523000000    -3.119000000     0.820000000
O    -4.516000000    -2.240000000     1.145000000
C    -3.408000000    -3.629000000    -0.448000000
C    -4.499000000    -3.304000000    -1.423000000
H    -4.600000000    -4.071000000    -2.193000000
C    -4.113000000    -1.985000000    -2.161000000
C    -3.314000000    -2.022000000    -3.316000000
H    -3.059000000    -3.022000000    -3.656000000
H    -5.422000000    -3.279000000    -0.841000000
C    -2.343000000    -4.470000000    -0.742000000
H    -2.307000000    -4.838000000    -1.765000000
C    -1.267000000    -4.619000000     0.132000000
C    -0.052000000    -5.428000000    -0.254000000
H    -0.321000000    -6.008000000    -1.139000000
H     0.188000000    -6.185000000     0.496000000
C     1.177000000    -4.606000000    -0.622000000
C     1.281000000    -4.303000000    -2.007000000
H     0.525000000    -4.612000000    -2.725000000
C     2.026000000    -4.039000000     0.317000000
C     3.050000000    -3.167000000    -0.190000000
H     3.731000000    -2.609000000     0.447000000
C     3.159000000    -2.967000000    -1.539000000
O     4.115000000    -2.036000000    -1.950000000
C     3.703000000    -0.725000000    -2.140000000
C     4.551000000     0.311000000    -1.374000000
C     4.317000000     1.625000000    -1.550000000
H     3.538000000     1.999000000    -2.210000000
C     5.507000000    -0.076000000    -0.355000000
H     5.590000000    -1.144000000    -0.172000000
O     3.455000000    -0.439000000    -3.500000000
H     2.674000000    -0.775000000    -1.754000000
C     2.313000000    -3.540000000    -2.486000000
C     2.414000000    -3.200000000    -3.990000000
H     1.961000000    -4.030000000    -4.537000000
H     3.463000000    -3.051000000    -4.252000000
C     1.643000000    -1.898000000    -4.204000000
C     0.278000000    -1.968000000    -4.593000000
H    -0.260000000    -2.911000000    -4.652000000
C     2.224000000    -0.628000000    -4.045000000
C     1.460000000     0.500000000    -4.183000000
H     1.951000000     1.455000000    -4.017000000
C     0.079000000     0.477000000    -4.479000000
O    -0.611000000     1.603000000    -4.577000000
C    -1.576000000     1.982000000    -3.538000000
C    -1.446000000     3.464000000    -3.146000000
C    -0.216000000     4.162000000    -3.501000000
H     0.625000000     3.785000000    -4.077000000
C    -2.417000000     4.104000000    -2.385000000
H    -3.427000000     3.705000000    -2.341000000
O    -2.914000000     1.605000000    -4.001000000
H    -1.333000000     1.425000000    -2.621000000
C    -0.482000000    -0.780000000    -4.586000000
C    -1.909000000    -1.000000000    -5.046000000
H    -1.971000000    -2.030000000    -5.401000000
H    -2.053000000    -0.348000000    -5.910000000
C    -2.884000000    -0.855000000    -3.956000000
C    -3.432000000     0.359000000    -3.579000000
C    -4.109000000     0.432000000    -2.383000000
H    -4.527000000     1.399000000    -2.115000000
C    -4.328000000    -0.750000000    -1.615000000
O    -4.927000000    -0.649000000    -0.376000000
C    -4.165000000    -0.952000000     0.840000000
H    -3.127000000    -1.025000000     0.483000000
C    -4.382000000     0.170000000     1.866000000
C    -3.690000000     0.059000000     3.086000000
H    -3.075000000    -0.821000000     3.259000000
C    -5.033000000     1.349000000     1.541000000
H    -5.520000000     1.559000000     0.592000000
C    -5.048000000     2.403000000     2.418000000
O    -5.764000000     3.554000000     2.059000000
C    -4.336000000     2.309000000     3.624000000
H    -4.189000000     3.191000000     4.243000000
C    -3.612000000     1.150000000     3.953000000
O    -3.069000000     1.148000000     5.235000000
C    -2.716000000    -0.045000000     5.933000000
C    -1.335000000    -0.292000000     6.086000000
H    -0.575000000     0.279000000     5.559000000
C    -3.636000000    -0.914000000     6.507000000
H    -4.697000000    -0.788000000     6.308000000
C    -3.164000000    -1.891000000     7.381000000
H    -3.823000000    -2.625000000     7.838000000
C    -1.805000000    -2.043000000     7.670000000
H    -1.507000000    -2.783000000     8.408000000
C    -0.905000000    -1.318000000     6.934000000
O     0.442000000    -1.707000000     7.001000000
C     1.172000000    -2.112000000     5.875000000
C     2.516000000    -1.899000000     5.992000000
H     2.873000000    -1.553000000     6.958000000
C     3.343000000    -2.077000000     4.878000000
O     4.678000000    -1.692000000     5.028000000
C     5.714000000    -1.656000000     4.106000000
C     5.772000000    -0.579000000     3.261000000
H     5.040000000     0.222000000     3.329000000
C     6.564000000    -2.722000000     3.995000000
H     6.377000000    -3.548000000     4.676000000
C     7.573000000    -2.694000000     2.956000000
H     8.271000000    -3.507000000     2.774000000
C     7.659000000    -1.502000000     2.167000000
H     8.476000000    -1.463000000     1.451000000
C     6.729000000    -0.433000000     2.270000000
O     6.903000000     0.692000000     1.446000000
C     6.096000000     0.954000000     0.387000000
C     5.895000000     2.285000000     0.120000000
H     6.206000000     3.084000000     0.787000000
C     4.990000000     2.592000000    -0.837000000
O     4.619000000     3.906000000    -1.035000000
C     4.083000000     4.478000000    -2.155000000
C     2.817000000     5.113000000    -2.189000000
H     2.329000000     5.184000000    -1.221000000
C     4.752000000     4.290000000    -3.387000000
H     5.651000000     3.680000000    -3.435000000
C     4.215000000     4.798000000    -4.551000000
H     4.846000000     4.895000000    -5.431000000
C     2.947000000     5.473000000    -4.575000000
H     2.541000000     5.865000000    -5.504000000
C     2.266000000     5.584000000    -3.409000000
O     1.008000000     6.195000000    -3.348000000
C    -0.181000000     5.465000000    -3.097000000
C    -1.056000000     6.040000000    -2.154000000
H    -0.851000000     6.982000000    -1.650000000
C    -2.228000000     5.363000000    -1.906000000
O    -3.113000000     6.023000000    -1.062000000
C    -4.275000000     5.423000000    -0.743000000
C    -5.377000000     5.581000000    -1.595000000
H    -5.315000000     6.059000000    -2.569000000
C    -6.513000000     4.781000000    -1.339000000
H    -7.284000000     4.682000000    -2.098000000
C    -6.631000000     4.121000000    -0.137000000
H    -7.571000000     3.659000000     0.151000000
C    -5.607000000     4.123000000     0.790000000
C    -4.448000000     4.798000000     0.453000000
H    -3.674000000     4.850000000     1.214000000
O     2.171000000     6.516000000     1.204000000
H     2.840000000     5.838000000     1.305000000
H     1.341000000     6.051000000     1.311000000
O    -0.762000000     3.119000000     6.181000000
H    -0.179000000     3.243000000     5.432000000
H    -1.636000000     3.304000000     5.837000000
O     3.809000000     4.608000000     2.185000000
H     4.649000000     4.652000000     2.642000000
H     3.387000000     3.823000000     2.534000000
O     3.340000000     1.591000000     6.184000000
H     3.206000000     1.782000000     5.256000000
H     3.843000000     0.776000000     6.190000000
O     2.324000000     1.228000000    10.095000000
H     3.213000000     1.564000000     9.981000000
H     1.806000000     1.690000000     9.436000000
O    -1.842000000     2.302000000     9.276000000
H    -1.416000000     2.203000000     8.425000000
H    -1.785000000     3.239000000     9.465000000
O     4.813000000     4.214000000     7.919000000
H     3.949000000     4.199000000     7.507000000
H     4.938000000     5.126000000     8.181000000
O    -2.311000000     7.581000000     2.741000000
H    -1.770000000     6.795000000     2.816000000
H    -1.700000000     8.269000000     2.481000000
O     3.698000000     4.803000000     5.341000000
H     4.541000000     4.480000000     5.023000000
H     3.057000000     4.184000000     4.989000000
O     6.321000000     4.616000000     3.899000000
H     6.743000000     4.986000000     4.675000000
H     6.726000000     3.755000000     3.794000000
O     3.131000000     7.306000000     3.699000000
H     3.318000000     6.468000000     4.122000000
H     3.023000000     7.087000000     2.773000000
O     7.572000000     2.164000000     4.532000000
H     6.941000000     1.605000000     4.986000000
H     8.227000000     2.375000000     5.198000000
O     0.174000000     4.849000000     1.291000000
H     0.036000000     3.956000000     0.975000000
H     0.115000000     4.778000000     2.243000000
O     1.133000000     2.784000000     8.227000000
H     0.421000000     3.142000000     7.697000000
H     1.740000000     2.408000000     7.590000000
O     1.142000000     9.325000000     5.069000000
H     1.181000000     8.369000000     5.066000000
H     1.859000000     9.596000000     4.495000000
O     1.021000000     6.489000000     5.831000000
H     1.917000000     6.294000000     5.557000000
H     1.065000000     6.525000000     6.786000000
O    -3.947000000     5.524000000     4.802000000
H    -3.051000000     5.190000000     4.847000000
H    -3.845000000     6.461000000     4.635000000
O    -1.184000000     5.412000000     4.579000000
H    -0.449000000     4.808000000     4.478000000
H    -0.846000000     6.108000000     5.143000000
O     5.284000000     7.366000000     0.994000000
H     4.777000000     6.775000000     1.551000000
H     5.714000000     7.963000000     1.607000000
