201
-1244.78436
C     2.928000000    -2.536000000     3.929000000
H     3.556000000    -2.666000000     3.052000000
C     1.561000000    -2.891000000     3.870000000
C     0.712000000    -2.521000000     4.953000000
H    -0.347000000    -2.758000000     4.888000000
C     0.972000000    -3.337000000     2.595000000
O     1.915000000    -4.187000000     1.924000000
H     0.629000000    -2.470000000     2.011000000
O    -0.234000000    -4.112000000     2.766000000
C    -1.322000000    -4.003000000     1.865000000
C    -2.477000000    -3.318000000     2.242000000
H    -2.603000000    -2.882000000     3.230000000
C    -3.437000000    -3.069000000     1.253000000
O    -4.335000000    -2.130000000     1.633000000
C    -3.326000000    -3.613000000    -0.065000000
C    -4.428000000    -3.239000000    -1.035000000
H    -4.735000000    -4.070000000    -1.674000000
C    -4.104000000    -1.997000000    -1.760000000
C    -3.441000000    -2.098000000    -3.017000000
H    -3.207000000    -3.072000000    -3.440000000
H    -5.345000000    -3.004000000    -0.491000000
C    -2.224000000    -4.403000000    -0.368000000
H    -2.147000000    -4.707000000    -1.409000000
C    -1.273000000    -4.689000000     0.629000000
C    -0.065000000    -5.495000000     0.253000000
H    -0.236000000    -6.252000000    -0.515000000
H     0.382000000    -6.119000000     1.030000000
C     1.086000000    -4.593000000    -0.293000000
C     1.261000000    -4.464000000    -1.672000000
H     0.425000000    -4.816000000    -2.271000000
C     2.105000000    -4.107000000     0.536000000
C     3.180000000    -3.371000000     0.000000000
H     3.839000000    -2.856000000     0.694000000
C     3.250000000    -3.196000000    -1.399000000
O     4.086000000    -2.245000000    -1.977000000
C     3.513000000    -0.921000000    -2.345000000
C     4.374000000     0.179000000    -1.791000000
C     4.647000000     1.353000000    -2.561000000
H     4.332000000     1.287000000    -3.599000000
C     4.759000000     0.206000000    -0.451000000
H     4.448000000    -0.647000000     0.146000000
O     3.374000000    -0.833000000    -3.790000000
H     2.561000000    -0.729000000    -1.828000000
C     2.257000000    -3.705000000    -2.194000000
C     2.266000000    -3.393000000    -3.704000000
H     1.793000000    -4.226000000    -4.228000000
H     3.286000000    -3.400000000    -4.091000000
C     1.486000000    -2.159000000    -4.081000000
C     0.151000000    -2.238000000    -4.330000000
H    -0.329000000    -3.211000000    -4.264000000
C     2.092000000    -0.922000000    -4.302000000
C     1.370000000     0.262000000    -4.572000000
H     1.871000000     1.216000000    -4.433000000
C    -0.037000000     0.158000000    -4.732000000
O    -0.745000000     1.360000000    -4.601000000
C    -1.489000000     1.727000000    -3.440000000
C    -1.240000000     3.200000000    -3.227000000
C    -0.010000000     3.794000000    -3.460000000
H     0.798000000     3.190000000    -3.864000000
C    -2.282000000     3.937000000    -2.673000000
H    -3.252000000     3.505000000    -2.440000000
O    -2.867000000     1.393000000    -3.736000000
H    -1.152000000     1.114000000    -2.591000000
C    -0.624000000    -1.120000000    -4.730000000
C    -2.149000000    -1.284000000    -4.956000000
H    -2.355000000    -2.227000000    -5.465000000
H    -2.459000000    -0.583000000    -5.734000000
C    -3.062000000    -0.988000000    -3.734000000
C    -3.352000000     0.256000000    -3.222000000
C    -4.174000000     0.437000000    -2.047000000
H    -4.369000000     1.440000000    -1.676000000
C    -4.406000000    -0.692000000    -1.251000000
O    -4.860000000    -0.478000000    -0.032000000
C    -4.083000000    -0.759000000     1.084000000
H    -3.050000000    -0.619000000     0.733000000
C    -4.288000000     0.397000000     2.115000000
C    -3.806000000     0.219000000     3.423000000
H    -3.333000000    -0.725000000     3.683000000
C    -4.670000000     1.681000000     1.739000000
H    -4.815000000     1.935000000     0.692000000
C    -4.632000000     2.712000000     2.657000000
O    -4.995000000     3.964000000     2.281000000
C    -4.288000000     2.494000000     3.968000000
H    -4.289000000     3.339000000     4.651000000
C    -3.843000000     1.264000000     4.385000000
O    -3.304000000     1.186000000     5.670000000
C    -2.803000000    -0.004000000     6.244000000
C    -1.421000000    -0.180000000     6.286000000
H    -0.718000000     0.521000000     5.844000000
C    -3.657000000    -0.975000000     6.750000000
H    -4.720000000    -0.748000000     6.773000000
C    -3.117000000    -2.146000000     7.348000000
H    -3.749000000    -2.818000000     7.923000000
C    -1.693000000    -2.337000000     7.386000000
H    -1.213000000    -3.077000000     8.021000000
C    -0.926000000    -1.338000000     6.825000000
O     0.424000000    -1.421000000     7.044000000
C     1.241000000    -1.840000000     6.073000000
C     2.562000000    -1.510000000     6.098000000
H     2.953000000    -0.894000000     6.904000000
C     3.374000000    -1.860000000     5.050000000
O     4.719000000    -1.530000000     5.118000000
C     5.469000000    -1.192000000     4.033000000
C     5.095000000    -0.201000000     3.201000000
H     4.221000000     0.413000000     3.402000000
C     6.617000000    -1.921000000     3.829000000
H     6.844000000    -2.798000000     4.428000000
C     7.388000000    -1.801000000     2.654000000
H     8.276000000    -2.423000000     2.570000000
C     7.061000000    -0.729000000     1.779000000
H     7.771000000    -0.563000000     0.973000000
C     5.963000000     0.090000000     2.140000000
O     5.764000000     1.260000000     1.466000000
C     5.448000000     1.254000000     0.155000000
C     5.722000000     2.348000000    -0.618000000
H     6.155000000     3.200000000    -0.099000000
C     5.314000000     2.406000000    -1.944000000
O     5.386000000     3.626000000    -2.561000000
C     4.506000000     4.143000000    -3.519000000
C     3.432000000     4.831000000    -3.043000000
H     3.217000000     4.839000000    -1.977000000
C     4.681000000     4.071000000    -4.871000000
H     5.568000000     3.491000000    -5.113000000
C     3.744000000     4.578000000    -5.795000000
H     3.981000000     4.453000000    -6.848000000
C     2.602000000     5.182000000    -5.281000000
H     1.810000000     5.579000000    -5.912000000
C     2.452000000     5.252000000    -3.923000000
O     1.320000000     5.917000000    -3.499000000
C     0.153000000     5.177000000    -3.197000000
C    -0.915000000     5.879000000    -2.642000000
H    -0.668000000     6.924000000    -2.469000000
C    -2.080000000     5.284000000    -2.309000000
O    -3.025000000     6.013000000    -1.579000000
C    -4.058000000     5.501000000    -0.952000000
C    -5.276000000     5.413000000    -1.589000000
H    -5.328000000     5.813000000    -2.599000000
C    -6.407000000     4.895000000    -0.975000000
H    -7.395000000     4.977000000    -1.420000000
C    -6.285000000     4.482000000     0.329000000
H    -7.207000000     4.329000000     0.884000000
C    -5.046000000     4.424000000     1.004000000
C    -3.930000000     4.949000000     0.400000000
H    -2.943000000     4.780000000     0.823000000
O    -1.907000000     7.891000000     6.015000000
H    -1.722000000     7.686000000     6.931000000
H    -2.828000000     8.152000000     6.010000000
O     2.589000000     7.513000000     1.337000000
H     2.197000000     6.672000000     1.572000000
H     2.067000000     8.161000000     1.809000000
O     0.778000000     1.644000000     8.838000000
H    -0.174000000     1.545000000     8.848000000
H     0.998000000     1.754000000     7.913000000
O    -5.236000000     3.677000000     7.304000000
H    -4.316000000     3.936000000     7.249000000
H    -5.671000000     4.426000000     7.712000000
O     4.396000000     2.487000000     5.391000000
H     5.276000000     2.147000000     5.555000000
H     4.515000000     3.128000000     4.689000000
O     1.960000000     1.894000000     6.368000000
H     1.481000000     2.252000000     5.621000000
H     2.873000000     1.879000000     6.083000000
O     0.068000000     4.625000000     9.373000000
H     0.789000000     4.026000000     9.178000000
H    -0.720000000     4.092000000     9.275000000
O     0.901000000     5.101000000     1.533000000
H     0.310000000     4.801000000     2.223000000
H     0.364000000     5.101000000     0.740000000
O    -3.959000000     7.658000000     3.660000000
H    -4.087000000     8.014000000     4.539000000
H    -3.064000000     7.319000000     3.666000000
O     0.679000000     6.183000000     5.301000000
H     0.804000000     5.495000000     4.648000000
H     1.258000000     5.938000000     6.022000000
O     3.781000000     7.297000000     5.386000000
H     3.622000000     6.358000000     5.487000000
H     3.394000000     7.690000000     6.168000000
O    -1.448000000     6.553000000     3.256000000
H    -1.214000000     6.852000000     4.134000000
H    -1.168000000     5.638000000     3.232000000
O     5.354000000     4.477000000     3.814000000
H     4.708000000     4.734000000     3.156000000
H     6.181000000     4.433000000     3.333000000
O     3.871000000     4.655000000     1.456000000
H     2.928000000     4.811000000     1.506000000
H     3.948000000     3.758000000     1.130000000
O    -1.988000000     2.530000000     8.032000000
H    -2.538000000     1.822000000     7.697000000
H    -1.731000000     3.023000000     7.252000000
O    -1.822000000     4.587000000     5.967000000
H    -1.712000000     4.426000000     5.030000000
H    -1.386000000     5.425000000     6.119000000
O    -1.948000000     7.859000000     1.005000000
H    -1.408000000     8.646000000     0.925000000
H    -1.661000000     7.455000000     1.824000000
O     0.738000000     8.792000000     4.310000000
H     0.399000000     8.007000000     4.742000000
H    -0.039000000     9.322000000     4.132000000
O     2.875000000     4.715000000     5.893000000
H     2.100000000     4.287000000     5.530000000
H     3.489000000     4.000000000     6.058000000
