201
-1220.83434
C     3.888000000    -2.757000000     3.081000000
H     4.387000000    -3.040000000     2.158000000
C     2.509000000    -2.827000000     3.274000000
C     1.944000000    -2.256000000     4.379000000
H     0.876000000    -2.295000000     4.575000000
C     1.615000000    -3.524000000     2.178000000
O     2.297000000    -4.343000000     1.230000000
H     1.177000000    -2.713000000     1.579000000
O     0.533000000    -4.289000000     2.788000000
C    -0.743000000    -4.011000000     2.223000000
C    -1.492000000    -2.978000000     2.800000000
H    -1.216000000    -2.636000000     3.794000000
C    -2.720000000    -2.778000000     2.334000000
O    -3.532000000    -1.876000000     2.946000000
C    -3.121000000    -3.287000000     1.079000000
C    -4.479000000    -3.007000000     0.446000000
H    -4.715000000    -3.793000000    -0.275000000
C    -4.275000000    -1.743000000    -0.410000000
C    -3.993000000    -1.916000000    -1.727000000
H    -3.932000000    -2.895000000    -2.196000000
H    -5.220000000    -2.791000000     1.219000000
C    -2.232000000    -4.095000000     0.425000000
H    -2.473000000    -4.461000000    -0.570000000
C    -1.084000000    -4.594000000     1.022000000
C    -0.202000000    -5.551000000     0.227000000
H    -0.848000000    -6.063000000    -0.490000000
H     0.304000000    -6.330000000     0.801000000
C     0.819000000    -4.825000000    -0.652000000
C     0.520000000    -4.537000000    -1.970000000
H    -0.373000000    -4.796000000    -2.533000000
C     1.960000000    -4.269000000    -0.104000000
C     2.871000000    -3.594000000    -0.887000000
H     3.776000000    -3.176000000    -0.454000000
C     2.540000000    -3.253000000    -2.237000000
O     3.339000000    -2.265000000    -2.889000000
C     2.669000000    -1.053000000    -3.099000000
C     3.622000000     0.098000000    -2.735000000
C     3.490000000     1.296000000    -3.354000000
H     2.703000000     1.358000000    -4.100000000
C     4.586000000    -0.044000000    -1.731000000
H     4.717000000    -0.982000000    -1.196000000
O     2.081000000    -0.875000000    -4.379000000
H     1.801000000    -1.089000000    -2.423000000
C     1.408000000    -3.806000000    -2.831000000
C     0.893000000    -3.368000000    -4.211000000
H     0.257000000    -4.162000000    -4.608000000
H     1.783000000    -3.245000000    -4.831000000
C     0.089000000    -2.088000000    -4.234000000
C    -1.322000000    -2.131000000    -4.236000000
H    -1.809000000    -3.102000000    -4.213000000
C     0.717000000    -0.896000000    -4.390000000
C     0.033000000     0.327000000    -4.496000000
H     0.593000000     1.251000000    -4.616000000
C    -1.376000000     0.259000000    -4.363000000
O    -2.132000000     1.370000000    -4.382000000
C    -2.493000000     1.854000000    -3.100000000
C    -2.148000000     3.301000000    -2.992000000
C    -1.165000000     3.829000000    -3.815000000
H    -0.631000000     3.288000000    -4.592000000
C    -2.883000000     4.113000000    -2.117000000
H    -3.671000000     3.643000000    -1.534000000
O    -3.893000000     1.583000000    -2.904000000
H    -1.872000000     1.428000000    -2.299000000
C    -2.031000000    -0.961000000    -4.228000000
C    -3.533000000    -1.027000000    -4.045000000
H    -3.821000000    -2.040000000    -4.333000000
H    -3.989000000    -0.394000000    -4.809000000
C    -3.996000000    -0.801000000    -2.584000000
C    -4.209000000     0.474000000    -2.077000000
C    -4.378000000     0.666000000    -0.706000000
H    -4.642000000     1.665000000    -0.369000000
C    -4.447000000    -0.442000000     0.111000000
O    -4.613000000    -0.253000000     1.507000000
C    -3.589000000    -0.516000000     2.420000000
H    -2.620000000    -0.417000000     1.909000000
C    -3.362000000     0.600000000     3.456000000
C    -2.801000000     0.402000000     4.703000000
H    -2.392000000    -0.543000000     5.052000000
C    -3.660000000     1.916000000     3.081000000
H    -4.146000000     2.135000000     2.134000000
C    -3.385000000     3.001000000     3.918000000
O    -3.604000000     4.372000000     3.472000000
C    -2.824000000     2.774000000     5.191000000
H    -2.620000000     3.650000000     5.803000000
C    -2.450000000     1.478000000     5.567000000
O    -1.960000000     1.264000000     6.823000000
C    -1.165000000     0.159000000     7.059000000
C     0.180000000     0.114000000     6.615000000
H     0.632000000     0.990000000     6.156000000
C    -1.710000000    -1.002000000     7.685000000
H    -2.704000000    -0.759000000     8.051000000
C    -0.977000000    -2.217000000     7.847000000
H    -1.502000000    -3.041000000     8.323000000
C     0.339000000    -2.242000000     7.420000000
H     1.017000000    -3.057000000     7.662000000
C     0.854000000    -1.086000000     6.709000000
O     2.195000000    -0.892000000     6.397000000
C     2.749000000    -1.527000000     5.290000000
C     4.086000000    -1.415000000     5.024000000
H     4.738000000    -0.795000000     5.635000000
C     4.682000000    -2.117000000     3.973000000
O     6.006000000    -1.867000000     3.683000000
C     6.470000000    -1.594000000     2.435000000
C     6.126000000    -0.453000000     1.735000000
H     5.595000000     0.345000000     2.247000000
C     7.192000000    -2.606000000     1.720000000
H     7.437000000    -3.550000000     2.199000000
C     7.654000000    -2.427000000     0.464000000
H     8.268000000    -3.163000000    -0.050000000
C     7.398000000    -1.261000000    -0.251000000
H     7.888000000    -1.144000000    -1.215000000
C     6.604000000    -0.288000000     0.407000000
O     6.185000000     0.966000000    -0.264000000
C     5.417000000     1.035000000    -1.337000000
C     5.303000000     2.210000000    -2.019000000
H     5.815000000     3.128000000    -1.742000000
C     4.306000000     2.355000000    -2.984000000
O     4.189000000     3.670000000    -3.495000000
C     3.225000000     3.958000000    -4.399000000
C     2.109000000     4.645000000    -3.981000000
H     2.046000000     4.875000000    -2.920000000
C     3.347000000     3.579000000    -5.741000000
H     4.211000000     3.018000000    -6.085000000
C     2.291000000     3.817000000    -6.638000000
H     2.176000000     3.406000000    -7.637000000
C     1.257000000     4.681000000    -6.256000000
H     0.473000000     4.784000000    -7.002000000
C     1.177000000     5.083000000    -4.939000000
O     0.069000000     5.787000000    -4.448000000
C    -0.824000000     5.139000000    -3.640000000
C    -1.537000000     5.932000000    -2.754000000
H    -1.297000000     6.991000000    -2.786000000
C    -2.548000000     5.461000000    -1.925000000
O    -3.161000000     6.242000000    -0.973000000
C    -3.988000000     5.689000000     0.006000000
C    -5.318000000     5.429000000    -0.227000000
H    -5.778000000     5.727000000    -1.165000000
C    -6.108000000     4.740000000     0.721000000
H    -7.168000000     4.629000000     0.512000000
C    -5.477000000     4.438000000     1.989000000
H    -6.143000000     4.083000000     2.771000000
C    -4.134000000     4.680000000     2.190000000
C    -3.440000000     5.392000000     1.222000000
H    -2.416000000     5.709000000     1.399000000
O     7.937000000     5.941000000     3.267000000
H     7.597000000     5.166000000     2.820000000
H     7.632000000     6.676000000     2.735000000
O     1.406000000     5.077000000    -0.239000000
H     0.892000000     5.245000000     0.551000000
H     1.652000000     4.154000000    -0.173000000
O     2.817000000     9.582000000     2.826000000
H     3.428000000    10.115000000     3.336000000
H     2.171000000     9.282000000     3.465000000
O     2.338000000     3.741000000     7.483000000
H     3.159000000     3.518000000     7.922000000
H     1.667000000     3.617000000     8.154000000
O     2.968000000     5.709000000     5.500000000
H     2.484000000     5.244000000     4.818000000
H     2.869000000     5.163000000     6.279000000
O     5.810000000     6.109000000     5.637000000
H     4.899000000     5.933000000     5.871000000
H     5.826000000     6.061000000     4.681000000
O     2.115000000     8.125000000     5.340000000
H     2.474000000     8.495000000     6.146000000
H     2.425000000     7.219000000     5.333000000
O    -0.092000000     5.786000000     2.243000000
H    -0.556000000     6.393000000     2.820000000
H     0.451000000     5.264000000     2.833000000
O     6.557000000     4.078000000     1.767000000
H     6.024000000     3.424000000     2.218000000
H     5.957000000     4.486000000     1.142000000
O     6.856000000     7.721000000     1.668000000
H     7.144000000     8.564000000     2.021000000
H     5.913000000     7.823000000     1.547000000
O     2.744000000     0.771000000     8.973000000
H     2.359000000     0.771000000     8.097000000
H     1.992000000     0.744000000     9.565000000
O     1.578000000     7.661000000    -1.348000000
H     2.270000000     7.492000000    -1.988000000
H     1.632000000     6.926000000    -0.737000000
O    -0.684000000     6.476000000     5.001000000
H    -1.453000000     6.224000000     5.512000000
H    -0.185000000     5.665000000     4.904000000
O     2.850000000     6.333000000     2.387000000
H     2.891000000     5.427000000     2.694000000
H     2.989000000     6.860000000     3.174000000
O     4.159000000     4.430000000     0.498000000
H     3.937000000     4.022000000     1.335000000
H     3.449000000     5.051000000     0.338000000
O     0.139000000     3.943000000     5.881000000
H     0.623000000     4.180000000     6.672000000
H     0.773000000     4.047000000     5.172000000
O     4.577000000     2.620000000     5.545000000
H     4.399000000     3.256000000     4.851000000
H     3.915000000     2.803000000     6.212000000
O     4.084000000     7.970000000     0.544000000
H     3.774000000     7.202000000     1.024000000
H     3.323000000     8.548000000     0.498000000
O     7.283000000     1.949000000     6.893000000
H     7.475000000     2.841000000     7.182000000
H     6.342000000     1.951000000     6.720000000
