201
-1245.21273
C     3.975000000    -2.722000000     2.411000000
H     4.307000000    -3.294000000     1.549000000
C     2.639000000    -2.680000000     2.834000000
C     2.350000000    -2.120000000     4.079000000
H     1.321000000    -2.062000000     4.424000000
C     1.531000000    -3.377000000     2.097000000
O     2.087000000    -4.380000000     1.288000000
H     0.954000000    -2.650000000     1.507000000
O     0.614000000    -3.968000000     3.074000000
C    -0.763000000    -3.888000000     2.740000000
C    -1.531000000    -2.928000000     3.332000000
H    -1.113000000    -2.357000000     4.157000000
C    -2.794000000    -2.598000000     2.806000000
O    -3.495000000    -1.614000000     3.476000000
C    -3.215000000    -3.318000000     1.673000000
C    -4.534000000    -3.021000000     0.870000000
H    -5.019000000    -3.808000000     0.288000000
C    -4.434000000    -1.798000000     0.015000000
C    -4.346000000    -1.988000000    -1.331000000
H    -4.259000000    -2.971000000    -1.788000000
H    -5.211000000    -2.738000000     1.679000000
C    -2.424000000    -4.269000000     1.093000000
H    -2.718000000    -4.814000000     0.200000000
C    -1.214000000    -4.555000000     1.585000000
C    -0.377000000    -5.587000000     0.776000000
H    -1.037000000    -6.348000000     0.355000000
H     0.296000000    -6.118000000     1.453000000
C     0.459000000    -4.920000000    -0.335000000
C    -0.028000000    -4.821000000    -1.652000000
H    -0.915000000    -5.412000000    -1.862000000
C     1.671000000    -4.401000000    -0.025000000
C     2.461000000    -3.715000000    -0.948000000
H     3.393000000    -3.286000000    -0.589000000
C     1.976000000    -3.576000000    -2.248000000
O     2.687000000    -2.747000000    -3.081000000
C     2.244000000    -1.413000000    -3.328000000
C     3.281000000    -0.298000000    -3.220000000
C     3.301000000     0.841000000    -4.155000000
H     2.539000000     0.803000000    -4.930000000
C     4.244000000    -0.327000000    -2.140000000
H     4.290000000    -1.014000000    -1.299000000
O     1.611000000    -1.372000000    -4.595000000
H     1.534000000    -1.072000000    -2.560000000
C     0.674000000    -4.099000000    -2.595000000
C     0.201000000    -3.923000000    -4.045000000
H    -0.524000000    -4.706000000    -4.276000000
H     1.055000000    -4.009000000    -4.720000000
C    -0.434000000    -2.515000000    -4.151000000
C    -1.835000000    -2.423000000    -3.912000000
H    -2.394000000    -3.317000000    -3.650000000
C     0.249000000    -1.392000000    -4.480000000
C    -0.448000000    -0.190000000    -4.616000000
H     0.124000000     0.691000000    -4.895000000
C    -1.745000000    -0.039000000    -4.192000000
O    -2.414000000     1.165000000    -4.116000000
C    -2.730000000     1.769000000    -2.911000000
C    -2.406000000     3.238000000    -2.764000000
C    -1.346000000     3.669000000    -3.619000000
H    -0.868000000     3.074000000    -4.394000000
C    -2.932000000     4.045000000    -1.750000000
H    -3.688000000     3.632000000    -1.088000000
O    -4.142000000     1.399000000    -2.585000000
H    -2.126000000     1.254000000    -2.149000000
C    -2.484000000    -1.180000000    -3.934000000
C    -3.918000000    -1.202000000    -3.666000000
H    -4.291000000    -2.166000000    -4.018000000
H    -4.367000000    -0.459000000    -4.330000000
C    -4.234000000    -0.963000000    -2.268000000
C    -4.319000000     0.342000000    -1.723000000
C    -4.491000000     0.595000000    -0.319000000
H    -4.578000000     1.625000000     0.016000000
C    -4.562000000    -0.514000000     0.555000000
O    -4.639000000    -0.233000000     1.913000000
C    -3.452000000    -0.369000000     2.657000000
H    -2.537000000    -0.359000000     2.046000000
C    -3.293000000     0.740000000     3.635000000
C    -2.323000000     0.679000000     4.622000000
H    -1.908000000    -0.304000000     4.829000000
C    -3.855000000     1.964000000     3.319000000
H    -4.553000000     2.099000000     2.496000000
C    -3.467000000     3.126000000     4.037000000
O    -4.046000000     4.296000000     3.827000000
C    -2.509000000     3.033000000     5.035000000
H    -2.314000000     3.891000000     5.673000000
C    -1.983000000     1.772000000     5.415000000
O    -0.884000000     1.713000000     6.285000000
C    -0.117000000     0.603000000     6.668000000
C     1.089000000     0.388000000     6.041000000
H     1.485000000     1.011000000     5.243000000
C    -0.393000000    -0.143000000     7.831000000
H    -1.267000000     0.156000000     8.403000000
C     0.468000000    -1.133000000     8.366000000
H     0.292000000    -1.521000000     9.366000000
C     1.564000000    -1.430000000     7.658000000
H     2.323000000    -2.139000000     7.979000000
C     1.891000000    -0.668000000     6.533000000
O     3.168000000    -0.806000000     5.933000000
C     3.384000000    -1.458000000     4.780000000
C     4.730000000    -1.427000000     4.283000000
H     5.558000000    -0.931000000     4.783000000
C     4.964000000    -2.099000000     3.165000000
O     6.316000000    -2.180000000     2.820000000
C     6.797000000    -1.738000000     1.624000000
C     6.119000000    -0.646000000     0.950000000
H     5.391000000    -0.012000000     1.450000000
C     7.853000000    -2.407000000     1.027000000
H     8.473000000    -3.106000000     1.582000000
C     8.227000000    -2.032000000    -0.245000000
H     8.977000000    -2.612000000    -0.778000000
C     7.543000000    -0.992000000    -0.966000000
H     7.722000000    -0.747000000    -2.010000000
C     6.548000000    -0.233000000    -0.317000000
O     6.076000000     0.862000000    -0.995000000
C     5.165000000     0.766000000    -2.015000000
C     5.120000000     1.827000000    -2.900000000
H     5.763000000     2.681000000    -2.705000000
C     4.203000000     1.906000000    -3.958000000
O     4.176000000     3.136000000    -4.608000000
C     3.081000000     3.589000000    -5.212000000
C     2.140000000     4.311000000    -4.455000000
H     2.380000000     4.404000000    -3.399000000
C     2.745000000     3.304000000    -6.550000000
H     3.396000000     2.780000000    -7.245000000
C     1.478000000     3.677000000    -7.059000000
H     1.191000000     3.538000000    -8.098000000
C     0.584000000     4.336000000    -6.273000000
H    -0.417000000     4.557000000    -6.634000000
C     0.893000000     4.699000000    -4.949000000
O     0.052000000     5.496000000    -4.267000000
C    -0.911000000     4.982000000    -3.454000000
C    -1.417000000     5.775000000    -2.422000000
H    -0.956000000     6.751000000    -2.294000000
C    -2.332000000     5.274000000    -1.512000000
O    -2.604000000     6.024000000    -0.412000000
C    -3.600000000     5.789000000     0.485000000
C    -4.908000000     6.213000000     0.269000000
H    -5.160000000     6.831000000    -0.590000000
C    -5.878000000     6.091000000     1.259000000
H    -6.837000000     6.576000000     1.101000000
C    -5.626000000     5.359000000     2.396000000
H    -6.343000000     5.262000000     3.207000000
C    -4.411000000     4.863000000     2.617000000
C    -3.348000000     5.109000000     1.670000000
H    -2.341000000     4.772000000     1.902000000
O     1.602000000     2.170000000    -1.612000000
H     1.412000000     1.443000000    -1.020000000
H     1.693000000     2.930000000    -1.037000000
O     2.169000000     6.200000000     1.944000000
H     2.063000000     5.284000000     2.198000000
H     1.663000000     6.689000000     2.593000000
O     1.480000000     3.280000000     7.583000000
H     0.718000000     2.886000000     7.158000000
H     1.862000000     3.847000000     6.913000000
O     7.419000000     4.526000000     3.825000000
H     7.284000000     5.358000000     3.371000000
H     6.862000000     3.904000000     3.357000000
O     3.176000000     4.355000000     5.520000000
H     3.579000000     3.741000000     4.906000000
H     2.545000000     4.842000000     4.991000000
O     2.642000000     5.999000000    -0.847000000
H     2.260000000     5.935000000     0.028000000
H     1.987000000     6.471000000    -1.361000000
O     4.814000000     4.606000000    -0.019000000
H     5.502000000     5.076000000    -0.490000000
H     4.001000000     5.021000000    -0.308000000
O     3.808000000     7.483000000     5.869000000
H     3.583000000     6.635000000     5.485000000
H     3.072000000     8.051000000     5.643000000
O    -1.936000000     7.675000000     3.799000000
H    -2.722000000     7.643000000     4.343000000
H    -1.713000000     6.757000000     3.646000000
O     6.856000000     6.874000000     2.174000000
H     5.907000000     6.993000000     2.123000000
H     7.189000000     7.264000000     1.366000000
O     4.162000000     7.786000000     1.188000000
H     4.303000000     8.099000000     0.295000000
H     3.323000000     7.327000000     1.152000000
O     5.391000000     4.137000000     7.879000000
H     4.723000000     4.060000000     8.561000000
H     4.903000000     4.070000000     7.058000000
O     6.506000000     0.644000000     7.124000000
H     6.180000000     1.484000000     6.799000000
H     6.775000000     0.824000000     8.024000000
O     0.894000000     5.848000000     6.297000000
H     1.022000000     6.793000000     6.379000000
H     0.081000000     5.674000000     6.772000000
O     7.258000000     1.279000000     3.611000000
H     6.808000000     1.732000000     2.899000000
H     6.636000000     1.299000000     4.339000000
O    -0.511000000     5.039000000     3.765000000
H     0.250000000     4.726000000     3.276000000
H    -0.162000000     5.277000000     4.624000000
O     7.661000000     3.172000000    -0.358000000
H     6.804000000     2.932000000    -0.004000000
H     8.278000000     2.956000000     0.341000000
O     4.982000000     1.722000000     5.233000000
H     4.655000000     1.106000000     5.889000000
H     4.224000000     1.908000000     4.680000000
O     5.463000000     3.019000000     2.131000000
H     4.580000000     2.929000000     2.490000000
H     5.365000000     3.637000000     1.406000000
