201
-1212.92415
C     4.003000000    -2.038000000     2.515000000
H     4.270000000    -2.154000000     1.468000000
C     2.792000000    -2.661000000     2.963000000
C     2.526000000    -2.533000000     4.333000000
H     1.603000000    -2.951000000     4.726000000
C     1.875000000    -3.322000000     2.015000000
O     2.643000000    -4.129000000     1.041000000
H     1.302000000    -2.524000000     1.520000000
O     0.960000000    -4.097000000     2.700000000
C    -0.371000000    -4.065000000     2.361000000
C    -1.178000000    -3.404000000     3.205000000
H    -0.877000000    -2.963000000     4.152000000
C    -2.506000000    -3.242000000     2.764000000
O    -3.211000000    -2.271000000     3.484000000
C    -2.990000000    -3.826000000     1.575000000
C    -4.465000000    -3.514000000     1.017000000
H    -4.857000000    -4.438000000     0.588000000
C    -4.336000000    -2.303000000     0.023000000
C    -4.147000000    -2.466000000    -1.360000000
H    -4.106000000    -3.471000000    -1.772000000
H    -5.070000000    -3.281000000     1.896000000
C    -2.206000000    -4.667000000     0.857000000
H    -2.510000000    -5.117000000    -0.085000000
C    -0.862000000    -4.773000000     1.260000000
C     0.154000000    -5.599000000     0.406000000
H    -0.417000000    -6.334000000    -0.166000000
H     0.761000000    -6.261000000     1.026000000
C     1.021000000    -4.788000000    -0.649000000
C     0.451000000    -4.656000000    -1.912000000
H    -0.507000000    -5.004000000    -2.291000000
C     2.180000000    -4.183000000    -0.253000000
C     2.828000000    -3.345000000    -1.124000000
H     3.708000000    -2.769000000    -0.852000000
C     2.382000000    -3.327000000    -2.485000000
O     3.015000000    -2.422000000    -3.297000000
C     2.296000000    -1.099000000    -3.350000000
C     3.221000000     0.198000000    -3.325000000
C     2.924000000     1.287000000    -4.179000000
H     2.209000000     1.205000000    -4.993000000
C     4.218000000     0.257000000    -2.366000000
H     4.467000000    -0.614000000    -1.765000000
O     1.691000000    -1.295000000    -4.673000000
H     1.564000000    -1.055000000    -2.531000000
C     1.199000000    -3.951000000    -2.843000000
C     0.549000000    -3.780000000    -4.328000000
H    -0.028000000    -4.635000000    -4.688000000
H     1.358000000    -3.712000000    -5.059000000
C    -0.331000000    -2.551000000    -4.366000000
C    -1.652000000    -2.636000000    -4.037000000
H    -1.966000000    -3.662000000    -3.861000000
C     0.311000000    -1.379000000    -4.697000000
C    -0.446000000    -0.234000000    -4.681000000
H     0.059000000     0.729000000    -4.689000000
C    -1.821000000    -0.224000000    -4.424000000
O    -2.422000000     1.020000000    -4.195000000
C    -2.711000000     1.517000000    -2.892000000
C    -2.466000000     3.012000000    -2.666000000
C    -1.716000000     3.759000000    -3.647000000
H    -1.443000000     3.292000000    -4.590000000
C    -2.770000000     3.610000000    -1.476000000
H    -3.224000000     2.985000000    -0.711000000
O    -4.030000000     1.034000000    -2.434000000
H    -1.954000000     1.130000000    -2.193000000
C    -2.400000000    -1.471000000    -4.079000000
C    -3.871000000    -1.580000000    -3.736000000
H    -4.199000000    -2.582000000    -4.019000000
H    -4.496000000    -0.945000000    -4.367000000
C    -4.112000000    -1.357000000    -2.225000000
C    -4.169000000    -0.064000000    -1.696000000
C    -4.276000000     0.102000000    -0.305000000
H    -4.409000000     1.100000000     0.106000000
C    -4.360000000    -1.001000000     0.581000000
O    -4.458000000    -0.861000000     1.979000000
C    -3.335000000    -0.950000000     2.819000000
H    -2.513000000    -0.988000000     2.088000000
C    -3.084000000     0.223000000     3.839000000
C    -1.934000000     0.324000000     4.640000000
H    -1.238000000    -0.510000000     4.622000000
C    -3.808000000     1.391000000     3.714000000
H    -4.695000000     1.409000000     3.086000000
C    -3.330000000     2.606000000     4.272000000
O    -3.992000000     3.738000000     4.123000000
C    -2.195000000     2.664000000     5.038000000
H    -1.755000000     3.555000000     5.477000000
C    -1.542000000     1.458000000     5.293000000
O    -0.369000000     1.496000000     6.064000000
C     0.204000000     0.442000000     6.746000000
C     1.246000000    -0.273000000     6.209000000
H     1.745000000    -0.096000000     5.260000000
C    -0.173000000     0.270000000     8.079000000
H    -0.977000000     0.912000000     8.430000000
C     0.667000000    -0.516000000     8.964000000
H     0.371000000    -0.698000000     9.994000000
C     1.625000000    -1.300000000     8.424000000
H     2.296000000    -1.793000000     9.123000000
C     1.943000000    -1.205000000     7.054000000
O     3.127000000    -1.736000000     6.533000000
C     3.408000000    -1.832000000     5.195000000
C     4.606000000    -1.370000000     4.768000000
H     5.349000000    -1.026000000     5.483000000
C     4.864000000    -1.371000000     3.383000000
O     6.055000000    -0.848000000     3.004000000
C     6.317000000    -0.613000000     1.674000000
C     5.850000000     0.476000000     0.985000000
H     5.094000000     1.102000000     1.452000000
C     7.047000000    -1.555000000     0.971000000
H     7.461000000    -2.407000000     1.504000000
C     7.375000000    -1.286000000    -0.339000000
H     8.011000000    -1.921000000    -0.949000000
C     7.062000000    -0.104000000    -0.951000000
H     7.364000000     0.135000000    -1.967000000
C     6.204000000     0.751000000    -0.361000000
O     5.679000000     1.817000000    -1.140000000
C     4.779000000     1.568000000    -2.169000000
C     4.553000000     2.619000000    -3.041000000
H     5.088000000     3.565000000    -3.026000000
C     3.623000000     2.478000000    -4.046000000
O     3.486000000     3.491000000    -5.025000000
C     2.256000000     3.938000000    -5.511000000
C     1.401000000     4.562000000    -4.616000000
H     1.641000000     4.720000000    -3.567000000
C     2.148000000     4.111000000    -6.915000000
H     2.926000000     3.747000000    -7.581000000
C     1.036000000     4.785000000    -7.430000000
H     0.825000000     4.767000000    -8.496000000
C     0.034000000     5.174000000    -6.537000000
H    -0.907000000     5.566000000    -6.914000000
C     0.293000000     5.204000000    -5.145000000
O    -0.572000000     5.859000000    -4.274000000
C    -1.283000000     5.085000000    -3.361000000
C    -1.659000000     5.666000000    -2.156000000
H    -1.318000000     6.683000000    -1.980000000
C    -2.410000000     4.958000000    -1.217000000
O    -2.676000000     5.580000000    -0.076000000
C    -3.716000000     5.216000000     0.811000000
C    -5.041000000     5.375000000     0.432000000
H    -5.314000000     5.925000000    -0.465000000
C    -6.059000000     5.057000000     1.380000000
H    -7.044000000     5.327000000     1.007000000
C    -5.741000000     4.509000000     2.595000000
H    -6.451000000     4.291000000     3.389000000
C    -4.392000000     4.204000000     2.857000000
C    -3.405000000     4.583000000     1.990000000
H    -2.362000000     4.403000000     2.238000000
O     3.551000000     6.944000000     0.336000000
H     2.783000000     6.677000000    -0.169000000
H     3.950000000     7.641000000    -0.184000000
O     0.510000000     2.980000000    -1.334000000
H     0.829000000     3.842000000    -1.067000000
H     0.777000000     2.395000000    -0.625000000
O    -0.279000000     6.232000000     2.015000000
H     0.247000000     5.670000000     2.584000000
H    -0.919000000     6.635000000     2.601000000
O     1.676000000     3.095000000     7.993000000
H     0.817000000     3.256000000     8.384000000
H     1.501000000     2.492000000     7.271000000
O     3.641000000     4.584000000     8.976000000
H     2.907000000     4.079000000     8.624000000
H     3.457000000     5.487000000     8.716000000
O     4.797000000     4.991000000     5.378000000
H     4.576000000     4.337000000     4.715000000
H     3.992000000     5.495000000     5.494000000
O     0.771000000     6.399000000    -0.291000000
H     0.685000000     7.347000000    -0.188000000
H     0.356000000     6.035000000     0.491000000
O    -1.655000000     7.554000000     3.988000000
H    -2.607000000     7.461000000     4.015000000
H    -1.389000000     7.571000000     4.908000000
O     7.458000000     5.940000000     4.151000000
H     6.841000000     5.481000000     4.721000000
H     6.949000000     6.150000000     3.368000000
O     3.787000000     6.856000000     3.060000000
H     3.591000000     6.674000000     2.141000000
H     3.474000000     6.083000000     3.530000000
O     5.382000000     8.883000000     2.315000000
H     4.977000000     8.070000000     2.618000000
H     4.650000000     9.407000000     1.988000000
O     6.433000000     6.173000000     1.378000000
H     6.800000000     6.897000000     0.870000000
H     5.502000000     6.172000000     1.154000000
O     0.370000000     5.713000000     5.544000000
H     0.437000000     4.886000000     6.021000000
H     0.833000000     5.554000000     4.722000000
O     7.680000000     2.834000000     5.165000000
H     8.537000000     2.841000000     4.740000000
H     7.056000000     2.940000000     4.447000000
O     4.805000000     7.908000000     5.482000000
H     4.700000000     7.822000000     4.534000000
H     3.941000000     8.173000000     5.796000000
O     3.555000000     1.915000000     5.257000000
H     4.328000000     1.965000000     4.696000000
H     2.893000000     2.434000000     4.800000000
O     5.707000000     3.128000000     3.174000000
H     4.779000000     3.273000000     2.988000000
H     6.154000000     3.372000000     2.363000000
O     4.808000000     0.843000000     7.823000000
H     4.507000000     0.939000000     6.919000000
H     4.603000000     1.683000000     8.234000000
O     2.168000000     7.885000000     6.242000000
H     1.565000000     8.626000000     6.176000000
H     1.622000000     7.116000000     6.083000000
