201
-1236.62037
C     3.292000000    -2.091000000     3.288000000
H     3.636000000    -2.544000000     2.362000000
C     1.942000000    -2.359000000     3.609000000
C     1.451000000    -1.852000000     4.826000000
H     0.450000000    -2.042000000     5.206000000
C     1.093000000    -3.218000000     2.604000000
O     1.869000000    -4.207000000     1.897000000
H     0.576000000    -2.594000000     1.860000000
O     0.048000000    -3.861000000     3.290000000
C    -1.186000000    -3.777000000     2.741000000
C    -2.036000000    -2.755000000     3.162000000
H    -1.695000000    -2.117000000     3.974000000
C    -3.187000000    -2.339000000     2.445000000
O    -3.782000000    -1.248000000     2.956000000
C    -3.590000000    -3.136000000     1.349000000
C    -4.862000000    -2.798000000     0.600000000
H    -5.207000000    -3.656000000     0.020000000
C    -4.598000000    -1.775000000    -0.458000000
C    -4.239000000    -2.110000000    -1.743000000
H    -4.293000000    -3.136000000    -2.097000000
H    -5.569000000    -2.457000000     1.360000000
C    -2.705000000    -4.104000000     0.883000000
H    -2.919000000    -4.657000000    -0.028000000
C    -1.494000000    -4.391000000     1.532000000
C    -0.561000000    -5.487000000     0.922000000
H    -1.238000000    -6.112000000     0.336000000
H    -0.204000000    -6.126000000     1.733000000
C     0.444000000    -4.872000000    -0.054000000
C     0.222000000    -4.907000000    -1.427000000
H    -0.658000000    -5.433000000    -1.788000000
C     1.639000000    -4.304000000     0.508000000
C     2.540000000    -3.696000000    -0.353000000
H     3.472000000    -3.193000000    -0.107000000
C     2.254000000    -3.648000000    -1.710000000
O     3.122000000    -2.902000000    -2.536000000
C     2.824000000    -1.513000000    -2.863000000
C     4.112000000    -0.669000000    -2.804000000
C     4.122000000     0.582000000    -3.436000000
H     3.323000000     0.875000000    -4.111000000
C     5.119000000    -1.034000000    -1.924000000
H     5.007000000    -1.884000000    -1.256000000
O     2.277000000    -1.455000000    -4.227000000
H     2.049000000    -1.177000000    -2.159000000
C     1.153000000    -4.281000000    -2.250000000
C     0.843000000    -4.083000000    -3.765000000
H     0.096000000    -4.750000000    -4.201000000
H     1.722000000    -4.246000000    -4.391000000
C     0.190000000    -2.738000000    -4.034000000
C    -1.200000000    -2.671000000    -4.106000000
H    -1.775000000    -3.584000000    -3.967000000
C     0.914000000    -1.535000000    -4.264000000
C     0.269000000    -0.351000000    -4.416000000
H     0.781000000     0.580000000    -4.646000000
C    -1.111000000    -0.282000000    -4.323000000
O    -1.746000000     0.909000000    -4.369000000
C    -2.006000000     1.619000000    -3.137000000
C    -1.619000000     3.080000000    -3.284000000
C    -0.344000000     3.478000000    -3.669000000
H     0.373000000     2.752000000    -4.046000000
C    -2.473000000     4.050000000    -2.762000000
H    -3.439000000     3.741000000    -2.371000000
O    -3.459000000     1.349000000    -2.884000000
H    -1.419000000     1.185000000    -2.314000000
C    -1.831000000    -1.456000000    -4.193000000
C    -3.362000000    -1.345000000    -4.057000000
H    -3.552000000    -2.392000000    -4.305000000
H    -3.844000000    -0.553000000    -4.634000000
C    -3.851000000    -1.109000000    -2.638000000
C    -3.826000000     0.220000000    -2.143000000
C    -4.178000000     0.553000000    -0.875000000
H    -4.055000000     1.570000000    -0.509000000
C    -4.684000000    -0.391000000    -0.092000000
O    -4.958000000    -0.033000000     1.216000000
C    -3.779000000    -0.008000000     2.107000000
H    -2.836000000    -0.201000000     1.575000000
C    -3.663000000     1.247000000     2.919000000
C    -3.018000000     1.239000000     4.179000000
H    -2.783000000     0.301000000     4.675000000
C    -4.018000000     2.502000000     2.401000000
H    -4.431000000     2.412000000     1.400000000
C    -3.713000000     3.719000000     3.023000000
O    -3.848000000     4.940000000     2.464000000
C    -3.023000000     3.600000000     4.224000000
H    -2.690000000     4.550000000     4.635000000
C    -2.721000000     2.410000000     4.822000000
O    -1.920000000     2.489000000     5.934000000
C    -1.364000000     1.388000000     6.518000000
C    -0.115000000     0.896000000     6.175000000
H     0.488000000     1.302000000     5.367000000
C    -2.228000000     0.761000000     7.413000000
H    -3.259000000     1.059000000     7.584000000
C    -1.723000000    -0.288000000     8.095000000
H    -2.300000000    -0.680000000     8.928000000
C    -0.460000000    -0.756000000     7.935000000
H    -0.147000000    -1.619000000     8.517000000
C     0.399000000    -0.185000000     6.983000000
O     1.642000000    -0.681000000     6.810000000
C     2.178000000    -1.033000000     5.627000000
C     3.500000000    -0.741000000     5.296000000
H     4.159000000    -0.066000000     5.836000000
C     4.016000000    -1.229000000     4.079000000
O     5.340000000    -0.860000000     3.708000000
C     5.945000000    -1.426000000     2.613000000
C     6.166000000    -0.665000000     1.444000000
H     5.789000000     0.349000000     1.333000000
C     6.457000000    -2.751000000     2.701000000
H     6.359000000    -3.339000000     3.609000000
C     7.228000000    -3.270000000     1.659000000
H     7.610000000    -4.271000000     1.839000000
C     7.519000000    -2.456000000     0.553000000
H     8.246000000    -2.794000000    -0.181000000
C     6.890000000    -1.215000000     0.350000000
O     7.163000000    -0.501000000    -0.825000000
C     6.218000000    -0.163000000    -1.786000000
C     6.224000000     1.044000000    -2.423000000
H     7.138000000     1.621000000    -2.308000000
C     5.145000000     1.492000000    -3.189000000
O     5.147000000     2.777000000    -3.743000000
C     4.079000000     3.341000000    -4.468000000
C     3.224000000     4.290000000    -3.906000000
H     3.324000000     4.678000000    -2.895000000
C     3.871000000     2.816000000    -5.732000000
H     4.640000000     2.133000000    -6.085000000
C     2.929000000     3.289000000    -6.540000000
H     2.712000000     2.895000000    -7.530000000
C     2.037000000     4.261000000    -6.005000000
H     1.144000000     4.602000000    -6.523000000
C     2.161000000     4.739000000    -4.683000000
O     1.166000000     5.440000000    -4.107000000
C     0.007000000     4.840000000    -3.608000000
C    -0.850000000     5.814000000    -3.052000000
H    -0.494000000     6.834000000    -2.933000000
C    -2.053000000     5.416000000    -2.603000000
O    -2.727000000     6.378000000    -1.902000000
C    -3.719000000     6.047000000    -0.958000000
C    -5.032000000     5.821000000    -1.371000000
H    -5.301000000     6.037000000    -2.402000000
C    -5.943000000     5.269000000    -0.398000000
H    -6.971000000     5.079000000    -0.694000000
C    -5.560000000     4.946000000     0.872000000
H    -6.252000000     4.592000000     1.631000000
C    -4.223000000     5.195000000     1.208000000
C    -3.305000000     5.672000000     0.331000000
H    -2.252000000     5.617000000     0.595000000
O     4.668000000     5.236000000     3.661000000
H     4.192000000     4.406000000     3.652000000
H     4.294000000     5.735000000     2.935000000
O     2.378000000     3.702000000     8.966000000
H     1.711000000     3.848000000     8.295000000
H     3.048000000     3.176000000     8.527000000
O     7.469000000     5.280000000     3.851000000
H     7.661000000     6.157000000     4.185000000
H     6.590000000     5.352000000     3.481000000
O     0.802000000     4.049000000     6.577000000
H    -0.054000000     3.640000000     6.702000000
H     1.020000000     3.873000000     5.661000000
O     2.618000000     5.216000000     1.346000000
H     1.729000000     5.305000000     1.688000000
H     2.914000000     4.364000000     1.667000000
O     5.658000000     4.790000000    -0.469000000
H     6.460000000     4.531000000    -0.015000000
H     4.956000000     4.589000000     0.150000000
O    -0.574000000     7.866000000     1.424000000
H    -0.951000000     8.120000000     2.266000000
H    -0.513000000     6.912000000     1.467000000
O     1.603000000     0.939000000     9.941000000
H     1.290000000     0.741000000     9.058000000
H     1.748000000     1.886000000     9.936000000
O     3.821000000     7.409000000     0.425000000
H     3.543000000     6.516000000     0.632000000
H     3.395000000     7.952000000     1.087000000
O     6.470000000     1.177000000     8.188000000
H     5.771000000     1.830000000     8.180000000
H     7.196000000     1.607000000     8.641000000
O     7.631000000     1.231000000     5.621000000
H     7.127000000     1.263000000     6.433000000
H     7.032000000     1.566000000     4.953000000
O    -0.106000000     7.297000000     6.004000000
H    -0.374000000     6.458000000     6.379000000
H     0.389000000     7.725000000     6.703000000
O     5.113000000     5.088000000     6.406000000
H     5.324000000     5.325000000     5.503000000
H     4.557000000     5.803000000     6.717000000
O     0.548000000     5.957000000     3.178000000
H     1.160000000     5.258000000     3.410000000
H     0.109000000     6.173000000     4.001000000
O     3.927000000     2.652000000     6.737000000
H     3.416000000     2.526000000     5.937000000
H     4.345000000     3.506000000     6.622000000
O     2.376000000     8.980000000     2.668000000
H     2.755000000     8.669000000     3.490000000
H     1.721000000     8.320000000     2.441000000
O     6.509000000     2.492000000     3.534000000
H     5.640000000     2.551000000     3.138000000
H     6.790000000     3.402000000     3.635000000
O     2.708000000     6.377000000     6.981000000
H     2.202000000     5.580000000     7.137000000
H     2.341000000     7.017000000     7.590000000
O     3.280000000     8.362000000     5.197000000
H     4.143000000     8.694000000     5.447000000
H     3.087000000     7.686000000     5.847000000
