201
-1254.44653
C     3.593000000    -2.561000000     2.826000000
H     3.817000000    -2.797000000     1.789000000
C     2.340000000    -2.764000000     3.300000000
C     2.035000000    -2.228000000     4.541000000
H     1.104000000    -2.469000000     5.048000000
C     1.212000000    -3.302000000     2.401000000
O     1.686000000    -4.440000000     1.589000000
H     0.918000000    -2.576000000     1.629000000
O     0.063000000    -3.744000000     3.188000000
C    -1.210000000    -3.475000000     2.737000000
C    -1.902000000    -2.406000000     3.332000000
H    -1.311000000    -1.864000000     4.066000000
C    -3.121000000    -2.009000000     2.862000000
O    -3.653000000    -0.843000000     3.277000000
C    -3.686000000    -2.713000000     1.736000000
C    -5.064000000    -2.297000000     1.117000000
H    -5.587000000    -3.193000000     0.777000000
C    -4.855000000    -1.252000000     0.065000000
C    -4.529000000    -1.697000000    -1.227000000
H    -4.555000000    -2.767000000    -1.420000000
H    -5.776000000    -1.915000000     1.851000000
C    -2.974000000    -3.851000000     1.253000000
H    -3.392000000    -4.217000000     0.318000000
C    -1.754000000    -4.194000000     1.744000000
C    -1.035000000    -5.359000000     1.011000000
H    -1.820000000    -6.000000000     0.604000000
H    -0.451000000    -5.926000000     1.738000000
C    -0.108000000    -4.862000000    -0.120000000
C    -0.504000000    -4.750000000    -1.499000000
H    -1.527000000    -4.944000000    -1.811000000
C     1.220000000    -4.392000000     0.261000000
C     2.074000000    -3.781000000    -0.676000000
H     3.047000000    -3.411000000    -0.361000000
C     1.687000000    -3.816000000    -2.027000000
O     2.568000000    -3.251000000    -2.922000000
C     2.476000000    -1.861000000    -3.205000000
C     3.767000000    -1.153000000    -3.258000000
C     3.871000000     0.116000000    -3.913000000
H     3.032000000     0.492000000    -4.492000000
C     4.871000000    -1.553000000    -2.531000000
H     4.813000000    -2.473000000    -1.956000000
O     1.720000000    -1.711000000    -4.431000000
H     1.819000000    -1.428000000    -2.437000000
C     0.395000000    -4.216000000    -2.474000000
C     0.062000000    -4.108000000    -4.006000000
H    -0.683000000    -4.887000000    -4.181000000
H     0.921000000    -4.318000000    -4.647000000
C    -0.532000000    -2.716000000    -4.175000000
C    -1.865000000    -2.547000000    -3.836000000
H    -2.527000000    -3.400000000    -3.708000000
C     0.307000000    -1.606000000    -4.417000000
C    -0.236000000    -0.325000000    -4.472000000
H     0.405000000     0.538000000    -4.631000000
C    -1.591000000    -0.147000000    -4.201000000
O    -2.092000000     1.143000000    -4.266000000
C    -2.436000000     1.701000000    -2.992000000
C    -2.065000000     3.164000000    -2.962000000
C    -0.833000000     3.542000000    -3.471000000
H    -0.291000000     2.705000000    -3.906000000
C    -2.891000000     4.139000000    -2.375000000
H    -3.849000000     3.825000000    -1.967000000
O    -3.822000000     1.525000000    -2.683000000
H    -1.958000000     1.198000000    -2.138000000
C    -2.423000000    -1.261000000    -3.932000000
C    -3.897000000    -1.164000000    -3.670000000
H    -4.404000000    -2.075000000    -3.994000000
H    -4.215000000    -0.329000000    -4.297000000
C    -4.231000000    -0.766000000    -2.218000000
C    -4.190000000     0.560000000    -1.834000000
C    -4.568000000     1.042000000    -0.563000000
H    -4.382000000     2.062000000    -0.236000000
C    -4.938000000     0.134000000     0.385000000
O    -4.840000000     0.541000000     1.685000000
C    -3.620000000     0.325000000     2.400000000
H    -2.906000000     0.166000000     1.578000000
C    -3.186000000     1.585000000     3.240000000
C    -2.064000000     1.368000000     4.095000000
H    -1.728000000     0.343000000     4.229000000
C    -3.590000000     2.814000000     2.903000000
H    -4.432000000     2.906000000     2.221000000
C    -2.937000000     3.937000000     3.439000000
O    -3.260000000     5.240000000     3.015000000
C    -1.888000000     3.756000000     4.347000000
H    -1.283000000     4.630000000     4.575000000
C    -1.513000000     2.446000000     4.721000000
O    -0.407000000     2.369000000     5.512000000
C    -0.038000000     1.350000000     6.280000000
C     1.124000000     0.697000000     5.885000000
H     1.706000000     1.019000000     5.024000000
C    -0.705000000     1.055000000     7.466000000
H    -1.558000000     1.674000000     7.732000000
C    -0.352000000    -0.031000000     8.252000000
H    -0.939000000    -0.189000000     9.153000000
C     0.779000000    -0.711000000     7.891000000
H     1.248000000    -1.470000000     8.510000000
C     1.479000000    -0.365000000     6.726000000
O     2.660000000    -1.027000000     6.516000000
C     2.972000000    -1.514000000     5.272000000
C     4.198000000    -1.327000000     4.710000000
H     4.985000000    -0.917000000     5.337000000
C     4.579000000    -1.927000000     3.517000000
O     5.780000000    -1.657000000     2.973000000
C     6.212000000    -2.178000000     1.809000000
C     6.147000000    -1.435000000     0.605000000
H     5.806000000    -0.405000000     0.673000000
C     6.767000000    -3.463000000     1.831000000
H     6.843000000    -4.012000000     2.766000000
C     7.392000000    -3.978000000     0.680000000
H     7.770000000    -4.994000000     0.608000000
C     7.442000000    -3.133000000    -0.457000000
H     8.053000000    -3.392000000    -1.318000000
C     6.824000000    -1.902000000    -0.475000000
O     7.065000000    -0.999000000    -1.555000000
C     5.963000000    -0.707000000    -2.384000000
C     5.929000000     0.604000000    -2.859000000
H     6.659000000     1.370000000    -2.610000000
C     4.961000000     0.973000000    -3.753000000
O     4.974000000     2.256000000    -4.269000000
C     3.916000000     3.034000000    -4.779000000
C     3.078000000     3.742000000    -3.882000000
H     3.255000000     3.508000000    -2.835000000
C     3.546000000     2.931000000    -6.098000000
H     3.949000000     2.164000000    -6.754000000
C     2.464000000     3.677000000    -6.578000000
H     2.218000000     3.619000000    -7.635000000
C     1.621000000     4.372000000    -5.718000000
H     0.749000000     4.896000000    -6.101000000
C     1.891000000     4.388000000    -4.304000000
O     1.054000000     5.091000000    -3.537000000
C    -0.281000000     4.820000000    -3.328000000
C    -1.094000000     5.758000000    -2.761000000
H    -0.632000000     6.719000000    -2.550000000
C    -2.391000000     5.470000000    -2.277000000
O    -3.168000000     6.373000000    -1.635000000
C    -3.766000000     6.076000000    -0.426000000
C    -5.162000000     6.423000000    -0.378000000
H    -5.642000000     6.878000000    -1.240000000
C    -5.888000000     6.247000000     0.803000000
H    -6.896000000     6.652000000     0.841000000
C    -5.281000000     5.642000000     1.836000000
H    -5.743000000     5.533000000     2.814000000
C    -3.866000000     5.488000000     1.849000000
C    -3.105000000     5.613000000     0.709000000
H    -2.037000000     5.475000000     0.562000000
O     4.602000000     4.960000000     1.078000000
H     4.878000000     4.375000000     0.373000000
H     4.614000000     5.832000000     0.685000000
O     3.353000000     6.810000000     3.897000000
H     2.626000000     6.316000000     3.517000000
H     3.052000000     7.039000000     4.777000000
O     3.663000000     4.386000000     8.953000000
H     3.426000000     4.075000000     8.079000000
H     3.960000000     3.602000000     9.414000000
O     1.051000000     8.341000000    -0.378000000
H     1.054000000     7.862000000     0.451000000
H     0.294000000     8.923000000    -0.315000000
O     6.036000000     6.929000000     4.280000000
H     5.087000000     7.005000000     4.189000000
H     6.242000000     6.063000000     3.927000000
O     1.835000000     4.451000000     6.535000000
H     0.911000000     4.225000000     6.645000000
H     2.015000000     4.277000000     5.611000000
O     2.029000000     6.122000000     1.268000000
H     1.731000000     5.584000000     2.001000000
H     2.646000000     5.563000000     0.796000000
O     4.208000000     7.684000000     0.415000000
H     3.314000000     7.526000000     0.717000000
H     4.255000000     8.632000000     0.293000000
O    -2.102000000     8.443000000     2.801000000
H    -2.659000000     8.751000000     3.517000000
H    -1.365000000     8.016000000     3.238000000
O     2.926000000     1.527000000     8.369000000
H     2.832000000     0.584000000     8.232000000
H     3.277000000     1.855000000     7.541000000
O     6.554000000     1.134000000     6.162000000
H     5.690000000     1.546000000     6.161000000
H     7.166000000     1.861000000     6.046000000
O     2.463000000     7.418000000     6.570000000
H     1.667000000     6.953000000     6.828000000
H     2.563000000     8.105000000     7.228000000
O     4.849000000     5.304000000     6.449000000
H     5.262000000     5.940000000     5.864000000
H     3.969000000     5.649000000     6.594000000
O     7.219000000     2.284000000     2.598000000
H     6.298000000     2.375000000     2.843000000
H     7.654000000     3.023000000     3.023000000
O     0.169000000     7.133000000     4.026000000
H     0.423000000     6.272000000     3.694000000
H    -0.129000000     6.966000000     4.920000000
O    -1.959000000     6.568000000     6.295000000
H    -2.693000000     6.953000000     5.816000000
H    -2.340000000     5.823000000     6.760000000
O     4.236000000     2.582000000     6.065000000
H     3.517000000     2.533000000     5.435000000
H     4.535000000     3.490000000     6.017000000
O     1.936000000     9.118000000     2.988000000
H     2.865000000     8.921000000     3.108000000
H     1.480000000     8.409000000     3.441000000
O     5.041000000     4.213000000     3.559000000
H     4.162000000     3.902000000     3.773000000
H     4.981000000     4.492000000     2.645000000
