201
-1227.76230
C     2.165000000    -2.254000000     4.471000000
H     2.646000000    -2.951000000     3.790000000
C     0.796000000    -1.942000000     4.413000000
C     0.285000000    -1.017000000     5.341000000
H    -0.756000000    -0.761000000     5.160000000
C    -0.041000000    -2.632000000     3.304000000
O     0.389000000    -3.950000000     2.936000000
H    -0.043000000    -1.989000000     2.411000000
O    -1.494000000    -2.719000000     3.728000000
C    -2.421000000    -2.383000000     2.766000000
C    -3.067000000    -1.158000000     2.851000000
H    -2.830000000    -0.471000000     3.659000000
C    -4.131000000    -0.937000000     2.029000000
O    -4.582000000     0.311000000     2.150000000
C    -4.545000000    -1.796000000     1.020000000
C    -5.482000000    -1.454000000    -0.087000000
H    -6.028000000    -2.234000000    -0.623000000
C    -4.699000000    -0.685000000    -1.122000000
C    -4.097000000    -1.421000000    -2.177000000
H    -4.157000000    -2.506000000    -2.180000000
H    -6.233000000    -0.733000000     0.245000000
C    -3.854000000    -3.072000000     0.948000000
H    -4.155000000    -3.797000000     0.197000000
C    -2.765000000    -3.331000000     1.794000000
C    -2.125000000    -4.626000000     1.584000000
H    -2.877000000    -5.224000000     1.064000000
H    -2.042000000    -5.106000000     2.561000000
C    -0.733000000    -4.636000000     0.887000000
C    -0.687000000    -4.909000000    -0.463000000
H    -1.624000000    -5.207000000    -0.927000000
C     0.423000000    -4.319000000     1.596000000
C     1.591000000    -4.128000000     0.842000000
H     2.506000000    -3.653000000     1.188000000
C     1.608000000    -4.306000000    -0.551000000
O     2.767000000    -4.022000000    -1.178000000
C     2.819000000    -2.772000000    -1.846000000
C     4.086000000    -2.015000000    -1.539000000
C     4.635000000    -1.163000000    -2.547000000
H     4.025000000    -0.896000000    -3.406000000
C     4.776000000    -2.097000000    -0.363000000
H     4.264000000    -2.735000000     0.353000000
O     2.478000000    -2.858000000    -3.172000000
H     2.054000000    -2.060000000    -1.503000000
C     0.439000000    -4.714000000    -1.210000000
C     0.332000000    -4.854000000    -2.664000000
H    -0.521000000    -5.486000000    -2.918000000
H     1.249000000    -5.256000000    -3.099000000
C     0.078000000    -3.538000000    -3.301000000
C    -1.189000000    -3.186000000    -3.647000000
H    -1.996000000    -3.900000000    -3.501000000
C     1.154000000    -2.612000000    -3.563000000
C     0.862000000    -1.413000000    -4.202000000
H     1.682000000    -0.777000000    -4.527000000
C    -0.459000000    -1.089000000    -4.394000000
O    -0.671000000     0.186000000    -4.799000000
C    -1.111000000     1.199000000    -3.796000000
C    -0.312000000     2.433000000    -3.877000000
C     1.016000000     2.429000000    -4.258000000
H     1.522000000     1.572000000    -4.695000000
C    -0.919000000     3.582000000    -3.397000000
H    -1.971000000     3.578000000    -3.123000000
O    -2.542000000     1.323000000    -3.941000000
H    -0.794000000     0.909000000    -2.783000000
C    -1.527000000    -1.988000000    -4.139000000
C    -2.975000000    -1.580000000    -4.349000000
H    -3.503000000    -2.523000000    -4.506000000
H    -3.030000000    -0.992000000    -5.268000000
C    -3.424000000    -0.776000000    -3.145000000
C    -3.333000000     0.615000000    -3.111000000
C    -3.877000000     1.373000000    -2.110000000
H    -3.768000000     2.454000000    -2.091000000
C    -4.503000000     0.672000000    -1.049000000
O    -4.946000000     1.391000000    -0.055000000
C    -4.113000000     1.234000000     1.157000000
H    -3.134000000     0.874000000     0.807000000
C    -3.789000000     2.662000000     1.714000000
C    -3.059000000     2.710000000     2.914000000
H    -2.629000000     1.855000000     3.430000000
C    -4.069000000     3.826000000     1.039000000
H    -4.503000000     3.824000000     0.042000000
C    -3.708000000     5.115000000     1.528000000
O    -3.814000000     6.289000000     0.780000000
C    -2.998000000     5.117000000     2.760000000
H    -2.808000000     6.122000000     3.128000000
C    -2.663000000     3.939000000     3.425000000
O    -2.046000000     3.980000000     4.688000000
C    -1.930000000     2.883000000     5.538000000
C    -0.679000000     2.476000000     5.898000000
H     0.117000000     2.991000000     5.367000000
C    -3.025000000     2.248000000     6.174000000
H    -3.998000000     2.705000000     6.012000000
C    -2.828000000     1.199000000     7.045000000
H    -3.775000000     0.811000000     7.412000000
C    -1.539000000     0.744000000     7.311000000
H    -1.460000000    -0.156000000     7.916000000
C    -0.483000000     1.394000000     6.765000000
O     0.730000000     0.857000000     6.907000000
C     1.144000000    -0.228000000     6.144000000
C     2.530000000    -0.475000000     6.045000000
H     3.189000000     0.142000000     6.652000000
C     2.982000000    -1.468000000     5.312000000
O     4.382000000    -1.570000000     5.337000000
C     5.049000000    -2.192000000     4.278000000
C     5.371000000    -1.459000000     3.136000000
H     5.118000000    -0.408000000     3.027000000
C     5.535000000    -3.522000000     4.469000000
H     5.227000000    -4.069000000     5.356000000
C     6.408000000    -4.109000000     3.600000000
H     6.794000000    -5.040000000     4.007000000
C     6.637000000    -3.448000000     2.401000000
H     7.366000000    -3.826000000     1.689000000
C     6.162000000    -2.122000000     2.177000000
O     6.643000000    -1.432000000     1.084000000
C     5.923000000    -1.327000000    -0.095000000
C     6.519000000    -0.664000000    -1.101000000
H     7.387000000    -0.090000000    -0.789000000
C     5.814000000    -0.453000000    -2.248000000
O     6.283000000     0.518000000    -3.141000000
C     5.502000000     0.956000000    -4.139000000
C     4.726000000     2.034000000    -3.813000000
H     4.819000000     2.538000000    -2.854000000
C     5.508000000     0.475000000    -5.429000000
H     6.077000000    -0.391000000    -5.758000000
C     4.743000000     1.086000000    -6.438000000
H     4.777000000     0.744000000    -7.469000000
C     3.930000000     2.173000000    -6.093000000
H     3.455000000     2.689000000    -6.924000000
C     3.884000000     2.615000000    -4.757000000
O     3.174000000     3.702000000    -4.481000000
C     1.820000000     3.575000000    -4.158000000
C     1.175000000     4.719000000    -3.576000000
H     1.780000000     5.610000000    -3.430000000
C    -0.160000000     4.706000000    -3.270000000
O    -0.612000000     5.915000000    -2.756000000
C    -1.913000000     6.126000000    -2.239000000
C    -2.982000000     6.078000000    -3.137000000
H    -2.875000000     5.938000000    -4.210000000
C    -4.303000000     6.199000000    -2.760000000
H    -5.194000000     6.177000000    -3.382000000
C    -4.578000000     6.305000000    -1.433000000
H    -5.600000000     6.286000000    -1.063000000
C    -3.536000000     6.331000000    -0.572000000
C    -2.196000000     6.295000000    -0.916000000
H    -1.466000000     6.270000000    -0.111000000
O     3.458000000     3.160000000     6.163000000
H     2.893000000     3.170000000     5.390000000
H     4.299000000     3.493000000     5.850000000
O     1.713000000     5.156000000    -0.172000000
H     1.420000000     4.771000000     0.654000000
H     1.198000000     5.958000000    -0.259000000
O     1.421000000     5.292000000     5.755000000
H     1.518000000     4.721000000     6.517000000
H     1.657000000     4.739000000     5.009000000
O     4.385000000     2.682000000     3.204000000
H     3.505000000     2.958000000     3.459000000
H     4.969000000     3.224000000     3.734000000
O     6.279000000     4.615000000    -0.922000000
H     5.878000000     3.847000000    -0.517000000
H     7.121000000     4.300000000    -1.251000000
O     7.021000000     4.702000000     2.182000000
H     7.223000000     3.775000000     2.051000000
H     6.930000000     5.055000000     1.297000000
O    -1.079000000     6.470000000     6.588000000
H    -0.309000000     5.902000000     6.578000000
H    -1.528000000     6.281000000     5.764000000
O     2.567000000     2.494000000    -0.960000000
H     1.864000000     1.847000000    -0.907000000
H     2.119000000     3.339000000    -0.922000000
O     2.070000000     8.451000000     5.650000000
H     2.852000000     8.461000000     5.097000000
H     1.868000000     7.522000000     5.763000000
O     3.804000000     5.950000000    -1.550000000
H     4.524000000     5.335000000    -1.406000000
H     3.078000000     5.591000000    -1.041000000
O     0.099000000     7.266000000     2.128000000
H    -0.366000000     7.389000000     2.955000000
H     0.457000000     6.380000000     2.184000000
O     4.853000000     7.253000000     4.154000000
H     5.242000000     7.972000000     3.657000000
H     4.272000000     6.817000000     3.530000000
O     2.682000000     9.628000000     3.038000000
H     2.220000000     9.112000000     2.377000000
H     2.379000000    10.525000000     2.898000000
O     1.311000000     3.516000000     7.993000000
H     1.019000000     2.612000000     7.877000000
H     2.263000000     3.473000000     7.908000000
O     4.734000000     2.218000000     8.273000000
H     4.517000000     2.746000000     7.505000000
H     5.687000000     2.275000000     8.342000000
O     5.680000000     4.681000000     5.171000000
H     6.633000000     4.653000000     5.081000000
H     5.436000000     5.557000000     4.872000000
O     4.784000000     2.046000000     0.197000000
H     4.531000000     2.409000000     1.046000000
H     3.981000000     2.073000000    -0.323000000
O     3.692000000     8.372000000     0.287000000
H     3.696000000     7.733000000     1.000000000
H     3.540000000     7.851000000    -0.501000000
O     3.623000000     5.526000000     2.216000000
H     4.037000000     4.664000000     2.168000000
H     2.726000000     5.347000000     2.497000000
