201
-1249.84572
C     2.237000000    -1.516000000     4.364000000
H     2.586000000    -2.494000000     4.043000000
C     0.900000000    -1.224000000     4.287000000
C     0.419000000     0.037000000     4.603000000
H    -0.598000000     0.334000000     4.363000000
C     0.023000000    -2.272000000     3.523000000
O     0.631000000    -3.582000000     3.572000000
H    -0.178000000    -2.004000000     2.475000000
O    -1.319000000    -2.278000000     4.186000000
C    -2.329000000    -2.233000000     3.305000000
C    -3.052000000    -1.075000000     3.286000000
H    -2.908000000    -0.314000000     4.049000000
C    -4.046000000    -0.943000000     2.275000000
O    -4.584000000     0.367000000     2.242000000
C    -4.446000000    -2.011000000     1.479000000
C    -5.354000000    -1.657000000     0.285000000
H    -5.914000000    -2.525000000    -0.069000000
C    -4.724000000    -0.984000000    -0.928000000
C    -4.169000000    -1.789000000    -1.927000000
H    -4.279000000    -2.869000000    -1.869000000
H    -6.070000000    -0.899000000     0.610000000
C    -3.704000000    -3.246000000     1.535000000
H    -3.863000000    -4.009000000     0.777000000
C    -2.644000000    -3.341000000     2.510000000
C    -1.882000000    -4.634000000     2.638000000
H    -2.417000000    -5.533000000     2.327000000
H    -1.685000000    -4.845000000     3.691000000
C    -0.599000000    -4.659000000     1.807000000
C    -0.584000000    -5.055000000     0.415000000
H    -1.454000000    -5.385000000    -0.147000000
C     0.590000000    -4.176000000     2.338000000
C     1.746000000    -4.022000000     1.568000000
H     2.636000000    -3.708000000     2.107000000
C     1.744000000    -4.292000000     0.195000000
O     2.830000000    -3.983000000    -0.570000000
C     2.726000000    -2.828000000    -1.532000000
C     3.981000000    -1.970000000    -1.557000000
C     4.327000000    -1.230000000    -2.719000000
H     3.733000000    -1.315000000    -3.626000000
C     4.689000000    -1.861000000    -0.358000000
H     4.379000000    -2.377000000     0.547000000
O     2.370000000    -3.303000000    -2.786000000
H     1.976000000    -2.101000000    -1.187000000
C     0.566000000    -4.851000000    -0.334000000
C     0.507000000    -5.112000000    -1.833000000
H    -0.206000000    -5.888000000    -2.120000000
H     1.461000000    -5.558000000    -2.121000000
C     0.140000000    -3.830000000    -2.653000000
C    -1.164000000    -3.667000000    -3.073000000
H    -1.869000000    -4.461000000    -2.840000000
C     1.135000000    -3.043000000    -3.156000000
C     0.861000000    -2.024000000    -4.009000000
H     1.715000000    -1.436000000    -4.335000000
C    -0.501000000    -1.704000000    -4.335000000
O    -0.787000000    -0.443000000    -4.858000000
C    -1.237000000     0.534000000    -3.924000000
C    -0.423000000     1.829000000    -4.090000000
C     0.779000000     1.884000000    -4.815000000
H     1.126000000     0.999000000    -5.340000000
C    -0.766000000     2.896000000    -3.340000000
H    -1.594000000     2.905000000    -2.636000000
O    -2.597000000     0.815000000    -4.019000000
H    -1.107000000     0.258000000    -2.867000000
C    -1.478000000    -2.516000000    -3.849000000
C    -2.941000000    -2.144000000    -4.063000000
H    -3.580000000    -3.030000000    -4.047000000
H    -2.999000000    -1.720000000    -5.067000000
C    -3.507000000    -1.248000000    -3.019000000
C    -3.363000000     0.175000000    -3.133000000
C    -3.750000000     0.968000000    -2.012000000
H    -3.556000000     2.031000000    -2.127000000
C    -4.406000000     0.415000000    -0.934000000
O    -4.910000000     1.254000000     0.051000000
C    -4.062000000     1.280000000     1.305000000
H    -3.033000000     0.966000000     1.075000000
C    -4.008000000     2.678000000     1.788000000
C    -3.800000000     2.875000000     3.151000000
H    -3.932000000     2.122000000     3.924000000
C    -4.118000000     3.733000000     0.852000000
H    -4.146000000     3.577000000    -0.223000000
C    -3.912000000     5.039000000     1.325000000
O    -3.955000000     6.084000000     0.424000000
C    -3.784000000     5.250000000     2.639000000
H    -3.621000000     6.268000000     2.984000000
C    -3.665000000     4.211000000     3.547000000
O    -3.366000000     4.488000000     4.856000000
C    -2.541000000     3.596000000     5.610000000
C    -1.223000000     3.299000000     5.246000000
H    -0.856000000     3.741000000     4.323000000
C    -3.169000000     2.924000000     6.656000000
H    -4.083000000     3.328000000     7.084000000
C    -2.381000000     2.074000000     7.393000000
H    -2.843000000     1.511000000     8.199000000
C    -1.100000000     1.742000000     7.091000000
H    -0.526000000     1.023000000     7.670000000
C    -0.465000000     2.387000000     5.974000000
O     0.799000000     2.180000000     5.655000000
C     1.281000000     0.931000000     5.260000000
C     2.599000000     0.625000000     5.512000000
H     3.230000000     1.416000000     5.909000000
C     3.099000000    -0.617000000     4.993000000
O     4.417000000    -0.796000000     4.994000000
C     5.115000000    -1.477000000     4.076000000
C     5.482000000    -0.981000000     2.815000000
H     5.109000000     0.003000000     2.541000000
C     5.674000000    -2.703000000     4.399000000
H     5.502000000    -3.212000000     5.344000000
C     6.474000000    -3.363000000     3.481000000
H     6.887000000    -4.343000000     3.704000000
C     6.797000000    -2.782000000     2.270000000
H     7.488000000    -3.227000000     1.558000000
C     6.293000000    -1.613000000     1.946000000
O     6.573000000    -1.001000000     0.809000000
C     5.783000000    -1.041000000    -0.359000000
C     6.198000000    -0.244000000    -1.440000000
H     7.148000000     0.281000000    -1.394000000
C     5.481000000    -0.410000000    -2.643000000
O     5.975000000     0.152000000    -3.769000000
C     5.174000000     0.614000000    -4.789000000
C     4.101000000     1.487000000    -4.639000000
H     3.813000000     1.749000000    -3.624000000
C     5.768000000     0.457000000    -6.057000000
H     6.639000000    -0.190000000    -6.111000000
C     5.164000000     0.975000000    -7.208000000
H     5.644000000     0.641000000    -8.124000000
C     4.017000000     1.778000000    -7.054000000
H     3.594000000     2.234000000    -7.946000000
C     3.606000000     2.155000000    -5.782000000
O     2.618000000     3.156000000    -5.711000000
C     1.464000000     3.050000000    -5.012000000
C     0.973000000     4.144000000    -4.337000000
H     1.465000000     5.113000000    -4.346000000
C    -0.116000000     4.110000000    -3.468000000
O    -0.441000000     5.139000000    -2.661000000
C    -1.690000000     5.391000000    -2.379000000
C    -2.596000000     5.441000000    -3.427000000
H    -2.271000000     5.157000000    -4.425000000
C    -3.909000000     5.645000000    -3.126000000
H    -4.615000000     5.708000000    -3.950000000
C    -4.365000000     5.912000000    -1.844000000
H    -5.372000000     6.226000000    -1.582000000
C    -3.418000000     5.959000000    -0.818000000
C    -2.077000000     5.728000000    -1.083000000
H    -1.295000000     5.800000000    -0.331000000
O     8.117000000     1.211000000     1.873000000
H     7.910000000     0.423000000     1.371000000
H     7.286000000     1.467000000     2.272000000
O     5.022000000     7.220000000     6.829000000
H     5.328000000     6.953000000     5.962000000
H     5.822000000     7.409000000     7.318000000
O     2.184000000     6.019000000     4.831000000
H     1.759000000     5.458000000     4.183000000
H     2.388000000     5.432000000     5.559000000
O     1.992000000     6.190000000     0.641000000
H     1.762000000     5.627000000     1.380000000
H     1.834000000     7.079000000     0.959000000
O     0.067000000     7.351000000     5.938000000
H     0.729000000     6.708000000     5.687000000
H     0.340000000     7.649000000     6.806000000
O     4.420000000     3.555000000     5.454000000
H     4.739000000     4.451000000     5.350000000
H     3.740000000     3.463000000     4.787000000
O     0.817000000     8.524000000     1.938000000
H     0.353000000     7.765000000     2.291000000
H     1.564000000     8.643000000     2.524000000
O     4.585000000     5.031000000     2.943000000
H     3.740000000     4.632000000     3.150000000
H     4.676000000     4.922000000     1.996000000
O     4.429000000     4.637000000    -0.120000000
H     4.371000000     4.054000000    -0.877000000
H     3.533000000     4.950000000     0.010000000
O     6.145000000     6.565000000     4.413000000
H     5.427000000     6.101000000     3.983000000
H     6.933000000     6.098000000     4.134000000
O    -0.838000000     6.718000000     3.403000000
H    -0.606000000     7.063000000     4.265000000
H    -0.235000000     5.987000000     3.267000000
O    -0.366000000     4.606000000     8.709000000
H    -1.061000000     3.999000000     8.455000000
H     0.407000000     4.295000000     8.237000000
O     6.010000000     2.443000000     3.018000000
H     6.139000000     2.349000000     3.961000000
H     5.297000000     3.076000000     2.935000000
O     1.974000000     6.444000000    -2.141000000
H     1.134000000     6.033000000    -2.343000000
H     2.005000000     6.468000000    -1.184000000
O     4.543000000     3.384000000     8.106000000
H     4.376000000     2.441000000     8.123000000
H     4.787000000     3.568000000     7.199000000
O     1.952000000     4.137000000     7.295000000
H     1.751000000     3.435000000     6.676000000
H     2.810000000     3.904000000     7.650000000
O     3.885000000     4.154000000    -2.714000000
H     4.365000000     4.525000000    -3.454000000
H     3.141000000     4.743000000    -2.591000000
O     7.371000000     5.034000000    -0.538000000
H     7.885000000     4.722000000     0.208000000
H     6.473000000     5.074000000    -0.209000000
O     3.150000000     8.243000000     3.519000000
H     2.806000000     7.554000000     4.088000000
H     3.983000000     7.895000000     3.198000000
