201
-1261.21052
C    -5.142000000    -0.130000000    -0.671000000
H    -5.020000000     0.555000000    -1.506000000
C    -4.703000000     0.126000000     0.657000000
C    -5.010000000    -0.864000000     1.616000000
H    -4.633000000    -0.748000000     2.629000000
C    -3.894000000     1.424000000     0.934000000
O    -4.281000000     2.561000000     0.126000000
H    -2.920000000     1.049000000     0.589000000
O    -3.951000000     1.807000000     2.271000000
C    -2.827000000     2.206000000     3.039000000
C    -2.266000000     1.292000000     3.911000000
H    -2.800000000     0.364000000     4.098000000
C    -1.075000000     1.523000000     4.471000000
O    -0.448000000     0.408000000     5.069000000
C    -0.415000000     2.711000000     4.254000000
C     1.039000000     2.907000000     4.652000000
H     1.305000000     3.923000000     4.950000000
C     2.054000000     2.324000000     3.669000000
C     2.658000000     3.126000000     2.701000000
H     2.484000000     4.199000000     2.669000000
H     1.100000000     2.388000000     5.611000000
C    -1.009000000     3.732000000     3.442000000
H    -0.487000000     4.646000000     3.169000000
C    -2.162000000     3.390000000     2.773000000
C    -2.794000000     4.439000000     1.865000000
H    -2.450000000     5.431000000     2.164000000
H    -3.885000000     4.496000000     1.880000000
C    -2.381000000     4.134000000     0.479000000
C    -1.384000000     4.948000000    -0.068000000
H    -0.866000000     5.645000000     0.585000000
C    -3.167000000     3.292000000    -0.368000000
C    -2.684000000     2.998000000    -1.644000000
H    -3.235000000     2.289000000    -2.257000000
C    -1.591000000     3.653000000    -2.142000000
O    -1.228000000     3.424000000    -3.414000000
C    -0.168000000     2.509000000    -3.618000000
C    -0.447000000     1.494000000    -4.729000000
C     0.650000000     1.077000000    -5.477000000
H     1.577000000     1.636000000    -5.385000000
C    -1.664000000     0.871000000    -4.805000000
H    -2.530000000     1.146000000    -4.208000000
O     0.963000000     3.340000000    -3.818000000
H     0.057000000     1.933000000    -2.709000000
C    -0.943000000     4.638000000    -1.335000000
C     0.316000000     5.302000000    -1.786000000
H     0.571000000     6.255000000    -1.316000000
H     0.096000000     5.526000000    -2.831000000
C     1.560000000     4.416000000    -1.752000000
C     2.457000000     4.493000000    -0.668000000
H     2.257000000     5.215000000     0.119000000
C     1.846000000     3.477000000    -2.789000000
C     2.859000000     2.606000000    -2.643000000
H     3.035000000     1.884000000    -3.436000000
C     3.650000000     2.606000000    -1.520000000
O     4.491000000     1.457000000    -1.395000000
C     4.017000000     0.436000000    -0.498000000
C     4.171000000    -0.979000000    -1.017000000
C     4.279000000    -1.320000000    -2.399000000
H     4.359000000    -0.538000000    -3.150000000
C     4.113000000    -2.048000000    -0.103000000
H     3.848000000    -1.817000000     0.926000000
O     4.509000000     0.526000000     0.843000000
H     2.944000000     0.660000000    -0.409000000
C     3.458000000     3.527000000    -0.555000000
C     4.252000000     3.467000000     0.727000000
H     4.388000000     4.475000000     1.125000000
H     5.166000000     2.989000000     0.370000000
C     3.559000000     2.556000000     1.787000000
C     3.789000000     1.158000000     1.809000000
C     3.236000000     0.388000000     2.805000000
H     3.435000000    -0.680000000     2.753000000
C     2.404000000     0.965000000     3.747000000
O     1.861000000     0.023000000     4.571000000
C     0.466000000    -0.379000000     4.270000000
H     0.259000000    -0.215000000     3.203000000
C     0.352000000    -1.818000000     4.471000000
C    -0.867000000    -2.498000000     4.500000000
H    -1.698000000    -1.798000000     4.528000000
C     1.481000000    -2.607000000     4.544000000
H     2.457000000    -2.157000000     4.700000000
C     1.347000000    -3.995000000     4.676000000
O     2.470000000    -4.859000000     4.757000000
C     0.156000000    -4.663000000     4.603000000
H     0.091000000    -5.744000000     4.696000000
C    -0.972000000    -3.889000000     4.529000000
O    -2.212000000    -4.528000000     4.614000000
C    -3.346000000    -3.802000000     4.656000000
C    -4.114000000    -3.774000000     3.490000000
H    -3.795000000    -4.267000000     2.575000000
C    -3.870000000    -3.329000000     5.891000000
H    -3.443000000    -3.630000000     6.845000000
C    -5.087000000    -2.564000000     5.920000000
H    -5.453000000    -2.181000000     6.869000000
C    -5.780000000    -2.455000000     4.723000000
H    -6.737000000    -1.953000000     4.839000000
C    -5.285000000    -3.024000000     3.483000000
O    -5.993000000    -2.909000000     2.293000000
C    -5.692000000    -2.008000000     1.289000000
C    -6.172000000    -2.143000000     0.037000000
H    -6.684000000    -3.053000000    -0.267000000
C    -5.907000000    -1.259000000    -0.946000000
O    -6.305000000    -1.557000000    -2.275000000
C    -5.792000000    -0.881000000    -3.444000000
C    -4.514000000    -1.290000000    -3.949000000
H    -3.938000000    -1.995000000    -3.356000000
C    -6.487000000     0.182000000    -3.932000000
H    -7.410000000     0.560000000    -3.502000000
C    -5.989000000     0.720000000    -5.137000000
H    -6.542000000     1.561000000    -5.547000000
C    -4.846000000     0.275000000    -5.741000000
H    -4.415000000     0.698000000    -6.645000000
C    -4.087000000    -0.728000000    -5.152000000
O    -2.858000000    -1.082000000    -5.699000000
C    -1.807000000    -0.251000000    -5.687000000
C    -0.679000000    -0.661000000    -6.538000000
H    -0.834000000    -1.435000000    -7.285000000
C     0.510000000     0.010000000    -6.357000000
O     1.620000000    -0.246000000    -7.120000000
C     2.873000000    -0.608000000    -6.612000000
C     3.008000000    -1.560000000    -5.600000000
H     2.111000000    -1.866000000    -5.068000000
C     4.056000000     0.042000000    -7.102000000
H     4.004000000     0.795000000    -7.884000000
C     5.316000000    -0.491000000    -6.674000000
H     6.246000000    -0.053000000    -7.025000000
C     5.390000000    -1.477000000    -5.725000000
H     6.340000000    -1.796000000    -5.306000000
C     4.246000000    -1.993000000    -5.143000000
O     4.326000000    -2.952000000    -4.193000000
C     4.303000000    -2.603000000    -2.832000000
C     4.351000000    -3.656000000    -1.889000000
H     4.533000000    -4.688000000    -2.177000000
C     4.262000000    -3.374000000    -0.509000000
O     4.238000000    -4.479000000     0.313000000
C     4.459000000    -4.550000000     1.676000000
C     5.741000000    -4.662000000     2.225000000
H     6.630000000    -4.701000000     1.601000000
C     5.878000000    -4.738000000     3.618000000
H     6.871000000    -4.967000000     3.996000000
C     4.774000000    -4.794000000     4.433000000
H     4.963000000    -4.969000000     5.489000000
C     3.487000000    -4.704000000     3.880000000
C     3.340000000    -4.514000000     2.498000000
H     2.315000000    -4.429000000     2.147000000
O    -4.035000000    -5.096000000     0.002000000
H    -3.172000000    -4.737000000    -0.202000000
H    -3.873000000    -6.023000000     0.179000000
O     1.840000000    -8.487000000     2.900000000
H     1.182000000    -9.182000000     2.905000000
H     1.696000000    -8.027000000     2.073000000
O    -1.842000000   -10.406000000     2.367000000
H    -1.487000000    -9.923000000     3.113000000
H    -1.366000000   -10.062000000     1.611000000
O    -0.870000000    -8.838000000     4.501000000
H    -0.800000000    -8.105000000     3.890000000
H    -1.001000000    -8.427000000     5.355000000
O    -2.090000000    -4.494000000    -3.420000000
H    -3.039000000    -4.508000000    -3.545000000
H    -1.969000000    -4.678000000    -2.489000000
O    -4.373000000    -5.256000000    -2.616000000
H    -4.513000000    -4.922000000    -1.730000000
H    -4.155000000    -6.180000000    -2.492000000
O    -1.361000000    -6.918000000    -5.024000000
H    -1.594000000    -6.491000000    -4.200000000
H    -1.300000000    -7.847000000    -4.804000000
O     2.251000000    -6.309000000    -4.966000000
H     1.539000000    -6.256000000    -4.329000000
H     2.928000000    -6.823000000    -4.526000000
O    -4.293000000    -8.077000000    -3.245000000
H    -4.609000000    -8.981000000    -3.214000000
H    -3.456000000    -8.101000000    -2.781000000
O     0.627000000    -6.378000000    -2.864000000
H     0.063000000    -5.636000000    -2.645000000
H     0.055000000    -7.142000000    -2.791000000
O    -5.764000000    -7.539000000     3.045000000
H    -5.790000000    -6.876000000     2.355000000
H    -5.264000000    -8.261000000     2.664000000
O    -1.062000000    -6.929000000     2.662000000
H    -1.549000000    -6.276000000     3.165000000
H    -0.532000000    -6.415000000     2.052000000
O    -0.662000000    -3.934000000    -5.655000000
H    -0.806000000    -3.885000000    -4.710000000
H    -1.493000000    -4.253000000    -6.008000000
O     0.000000000    -9.460000000     0.625000000
H     0.441000000    -8.613000000     0.558000000
H     0.594000000   -10.074000000     0.194000000
O     1.322000000    -7.286000000     0.530000000
H     2.011000000    -6.976000000    -0.057000000
H     0.705000000    -6.556000000     0.583000000
O     3.549000000    -6.886000000    -0.906000000
H     3.738000000    -5.979000000    -1.145000000
H     3.640000000    -7.374000000    -1.724000000
O    -2.998000000    -7.496000000     0.949000000
H    -3.371000000    -8.286000000     1.340000000
H    -2.115000000    -7.442000000     1.315000000
O    -1.874000000    -7.344000000    -1.818000000
H    -1.716000000    -6.463000000    -1.479000000
H    -2.221000000    -7.830000000    -1.071000000
O    -6.718000000    -5.705000000     0.692000000
H    -7.305000000    -5.587000000    -0.054000000
H    -5.992000000    -5.104000000     0.523000000
