201
-1250.99423
C     3.401000000    -2.330000000     3.108000000
H     3.712000000    -2.868000000     2.216000000
C     2.085000000    -2.369000000     3.542000000
C     1.668000000    -1.375000000     4.506000000
H     0.638000000    -1.351000000     4.851000000
C     1.022000000    -3.081000000     2.742000000
O     1.627000000    -4.237000000     2.087000000
H     0.695000000    -2.410000000     1.934000000
O    -0.158000000    -3.412000000     3.527000000
C    -1.328000000    -3.157000000     2.939000000
C    -1.987000000    -1.988000000     3.285000000
H    -1.565000000    -1.297000000     4.010000000
C    -3.210000000    -1.699000000     2.661000000
O    -3.878000000    -0.542000000     3.115000000
C    -3.675000000    -2.538000000     1.644000000
C    -4.959000000    -2.241000000     0.920000000
H    -5.383000000    -3.211000000     0.649000000
C    -4.851000000    -1.266000000    -0.201000000
C    -4.666000000    -1.701000000    -1.481000000
H    -4.598000000    -2.767000000    -1.679000000
H    -5.668000000    -1.915000000     1.684000000
C    -2.974000000    -3.684000000     1.250000000
H    -3.318000000    -4.298000000     0.421000000
C    -1.827000000    -4.009000000     1.930000000
C    -1.094000000    -5.263000000     1.479000000
H    -1.844000000    -5.858000000     0.954000000
H    -0.589000000    -5.863000000     2.238000000
C     0.021000000    -4.962000000     0.473000000
C    -0.378000000    -4.869000000    -0.890000000
H    -1.411000000    -5.099000000    -1.135000000
C     1.264000000    -4.450000000     0.833000000
C     2.148000000    -4.075000000    -0.165000000
H     3.100000000    -3.704000000     0.204000000
C     1.786000000    -4.065000000    -1.465000000
O     2.701000000    -3.604000000    -2.339000000
C     2.537000000    -2.223000000    -2.778000000
C     3.842000000    -1.488000000    -2.758000000
C     3.894000000    -0.229000000    -3.313000000
H     2.954000000     0.114000000    -3.738000000
C     4.908000000    -1.863000000    -1.949000000
H     4.896000000    -2.766000000    -1.344000000
O     1.849000000    -2.132000000    -4.020000000
H     1.939000000    -1.753000000    -1.983000000
C     0.494000000    -4.427000000    -1.887000000
C     0.033000000    -4.407000000    -3.332000000
H    -0.783000000    -5.132000000    -3.357000000
H     0.853000000    -4.719000000    -3.982000000
C    -0.464000000    -2.966000000    -3.676000000
C    -1.824000000    -2.706000000    -3.515000000
H    -2.507000000    -3.498000000    -3.218000000
C     0.459000000    -1.954000000    -3.977000000
C    -0.099000000    -0.743000000    -4.290000000
H     0.432000000     0.110000000    -4.706000000
C    -1.472000000    -0.569000000    -4.256000000
O    -1.857000000     0.714000000    -4.436000000
C    -2.187000000     1.430000000    -3.249000000
C    -1.675000000     2.838000000    -3.353000000
C    -0.427000000     3.104000000    -4.046000000
H     0.082000000     2.282000000    -4.543000000
C    -2.295000000     3.926000000    -2.748000000
H    -3.199000000     3.775000000    -2.164000000
O    -3.630000000     1.438000000    -3.121000000
H    -1.774000000     0.879000000    -2.391000000
C    -2.408000000    -1.559000000    -3.954000000
C    -3.929000000    -1.450000000    -3.914000000
H    -4.426000000    -2.411000000    -4.064000000
H    -4.281000000    -0.883000000    -4.778000000
C    -4.341000000    -0.859000000    -2.526000000
C    -4.231000000     0.516000000    -2.181000000
C    -4.553000000     1.016000000    -0.948000000
H    -4.542000000     2.078000000    -0.717000000
C    -4.858000000     0.125000000     0.080000000
O    -4.926000000     0.627000000     1.388000000
C    -3.739000000     0.529000000     2.174000000
H    -2.907000000     0.338000000     1.479000000
C    -3.440000000     1.865000000     2.915000000
C    -2.964000000     1.779000000     4.196000000
H    -2.838000000     0.831000000     4.713000000
C    -3.590000000     3.083000000     2.243000000
H    -3.905000000     3.169000000     1.206000000
C    -3.378000000     4.245000000     2.922000000
O    -3.607000000     5.486000000     2.428000000
C    -2.822000000     4.184000000     4.179000000
H    -2.570000000     5.049000000     4.788000000
C    -2.530000000     2.988000000     4.826000000
O    -1.974000000     2.843000000     6.061000000
C    -1.132000000     1.953000000     6.561000000
C     0.068000000     1.643000000     5.929000000
H     0.320000000     2.107000000     4.978000000
C    -1.465000000     1.423000000     7.770000000
H    -2.304000000     1.831000000     8.327000000
C    -0.518000000     0.600000000     8.420000000
H    -0.677000000     0.230000000     9.430000000
C     0.708000000     0.288000000     7.771000000
H     1.432000000    -0.366000000     8.250000000
C     1.003000000     0.836000000     6.548000000
O     2.253000000     0.624000000     5.913000000
C     2.555000000    -0.414000000     4.998000000
C     3.919000000    -0.597000000     4.717000000
H     4.663000000    -0.034000000     5.274000000
C     4.298000000    -1.495000000     3.712000000
O     5.715000000    -1.523000000     3.443000000
C     6.339000000    -2.157000000     2.417000000
C     6.459000000    -1.485000000     1.216000000
H     6.161000000    -0.440000000     1.182000000
C     6.647000000    -3.527000000     2.550000000
H     6.457000000    -3.956000000     3.531000000
C     7.007000000    -4.220000000     1.381000000
H     7.218000000    -5.280000000     1.497000000
C     7.190000000    -3.517000000     0.180000000
H     7.603000000    -4.097000000    -0.642000000
C     6.936000000    -2.162000000     0.107000000
O     7.131000000    -1.440000000    -1.050000000
C     6.068000000    -1.158000000    -1.894000000
C     6.131000000     0.051000000    -2.570000000
H     7.082000000     0.570000000    -2.478000000
C     5.040000000     0.551000000    -3.232000000
O     5.040000000     1.890000000    -3.710000000
C     4.157000000     2.312000000    -4.642000000
C     3.117000000     3.070000000    -4.225000000
H     3.020000000     3.335000000    -3.176000000
C     4.297000000     2.002000000    -5.986000000
H     5.145000000     1.363000000    -6.219000000
C     3.371000000     2.480000000    -6.908000000
H     3.477000000     2.266000000    -7.968000000
C     2.316000000     3.302000000    -6.512000000
H     1.659000000     3.757000000    -7.249000000
C     2.175000000     3.667000000    -5.146000000
O     1.221000000     4.623000000    -4.813000000
C     0.089000000     4.370000000    -4.155000000
C    -0.616000000     5.475000000    -3.621000000
H    -0.233000000     6.487000000    -3.721000000
C    -1.727000000     5.201000000    -2.812000000
O    -2.357000000     6.238000000    -2.171000000
C    -3.197000000     6.150000000    -1.087000000
C    -4.428000000     6.671000000    -1.393000000
H    -4.702000000     6.794000000    -2.438000000
C    -5.348000000     6.958000000    -0.366000000
H    -6.273000000     7.486000000    -0.582000000
C    -5.031000000     6.505000000     0.945000000
H    -5.717000000     6.601000000     1.783000000
C    -3.875000000     5.857000000     1.170000000
C    -2.785000000     5.824000000     0.204000000
H    -1.781000000     5.437000000     0.356000000
O     3.934000000     6.579000000     4.772000000
H     3.056000000     6.373000000     4.449000000
H     4.098000000     5.926000000     5.453000000
O     6.407000000     3.127000000     4.871000000
H     6.735000000     2.228000000     4.903000000
H     5.456000000     3.038000000     4.938000000
O    -0.372000000     4.294000000     8.594000000
H    -1.240000000     4.319000000     8.191000000
H     0.217000000     4.618000000     7.913000000
O     6.615000000     6.452000000     0.351000000
H     5.890000000     5.827000000     0.320000000
H     7.349000000     5.986000000    -0.050000000
O     0.941000000     5.474000000    -0.787000000
H     1.327000000     4.640000000    -1.056000000
H     0.606000000     5.308000000     0.095000000
O    -1.287000000     6.890000000     3.137000000
H    -1.062000000     7.376000000     2.343000000
H    -0.826000000     6.055000000     3.045000000
O     0.418000000     9.904000000     2.404000000
H     0.594000000     8.998000000     2.149000000
H     0.339000000     9.873000000     3.357000000
O     1.576000000     5.040000000     5.402000000
H     1.529000000     4.503000000     4.611000000
H     1.871000000     4.437000000     6.084000000
O     5.741000000     1.855000000     2.167000000
H     4.821000000     1.905000000     2.425000000
H     6.225000000     1.925000000     2.991000000
O     3.818000000     1.588000000    -0.512000000
H     4.559000000     2.174000000    -0.664000000
H     4.218000000     0.734000000    -0.347000000
O    -0.881000000     8.098000000    -0.003000000
H    -0.942000000     7.411000000    -0.666000000
H    -0.645000000     8.885000000    -0.494000000
O     1.645000000     2.932000000    -1.023000000
H     1.066000000     2.482000000    -0.408000000
H     2.478000000     2.466000000    -0.954000000
O     3.879000000     8.420000000     0.907000000
H     4.267000000     8.729000000     1.726000000
H     3.086000000     7.957000000     1.178000000
O     2.030000000     7.598000000    -2.617000000
H     1.592000000     7.040000000    -1.975000000
H     2.963000000     7.482000000    -2.438000000
O    -0.805000000     6.433000000     6.104000000
H    -1.225000000     6.888000000     5.374000000
H    -0.098000000     5.932000000     5.698000000
O     3.733000000     2.959000000     5.015000000
H     3.408000000     2.238000000     5.555000000
H     3.031000000     3.122000000     4.385000000
O     1.538000000     7.206000000     1.737000000
H     1.500000000     6.500000000     2.383000000
H     0.997000000     6.895000000     1.011000000
O     3.988000000     4.257000000     1.148000000
H     3.831000000     4.116000000     2.082000000
H     3.114000000     4.282000000     0.759000000
O     6.131000000     3.708000000    -0.222000000
H     6.506000000     2.907000000     0.143000000
H     5.345000000     3.865000000     0.301000000
