201
-1226.65343
C    -4.893000000     0.202000000    -0.275000000
H    -4.728000000     1.050000000    -0.935000000
C    -4.490000000     0.317000000     1.020000000
C    -4.745000000    -0.735000000     1.957000000
H    -4.266000000    -0.719000000     2.933000000
C    -3.509000000     1.431000000     1.463000000
O    -3.864000000     2.740000000     0.876000000
H    -2.484000000     1.153000000     1.175000000
O    -3.603000000     1.637000000     2.868000000
C    -2.377000000     1.999000000     3.437000000
C    -1.892000000     0.919000000     4.193000000
H    -2.469000000    -0.001000000     4.237000000
C    -0.596000000     0.997000000     4.712000000
O    -0.065000000    -0.214000000     5.166000000
C     0.155000000     2.160000000     4.474000000
C     1.582000000     2.197000000     4.747000000
H     1.871000000     3.226000000     4.969000000
C     2.389000000     1.717000000     3.595000000
C     3.019000000     2.687000000     2.779000000
H     2.900000000     3.754000000     2.949000000
H     1.849000000     1.609000000     5.628000000
C    -0.340000000     3.251000000     3.758000000
H     0.299000000     4.063000000     3.419000000
C    -1.669000000     3.223000000     3.285000000
C    -2.227000000     4.431000000     2.591000000
H    -1.610000000     5.258000000     2.948000000
H    -3.258000000     4.487000000     2.947000000
C    -2.000000000     4.291000000     1.067000000
C    -0.831000000     4.870000000     0.537000000
H    -0.211000000     5.590000000     1.065000000
C    -2.839000000     3.454000000     0.307000000
C    -2.613000000     3.367000000    -1.005000000
H    -3.181000000     2.612000000    -1.543000000
C    -1.474000000     3.934000000    -1.612000000
O    -1.219000000     3.721000000    -2.904000000
C    -0.148000000     2.727000000    -3.125000000
C    -0.550000000     1.724000000    -4.232000000
C     0.439000000     1.169000000    -5.146000000
H     1.425000000     1.619000000    -5.225000000
C    -1.906000000     1.289000000    -4.397000000
H    -2.689000000     1.733000000    -3.787000000
O     1.089000000     3.366000000    -3.477000000
H    -0.050000000     2.061000000    -2.255000000
C    -0.608000000     4.742000000    -0.855000000
C     0.616000000     5.373000000    -1.475000000
H     0.922000000     6.322000000    -1.030000000
H     0.429000000     5.729000000    -2.490000000
C     1.798000000     4.425000000    -1.502000000
C     2.639000000     4.289000000    -0.324000000
H     2.354000000     4.760000000     0.613000000
C     1.990000000     3.491000000    -2.473000000
C     2.943000000     2.540000000    -2.530000000
H     3.085000000     1.716000000    -3.225000000
C     3.894000000     2.561000000    -1.434000000
O     4.726000000     1.477000000    -1.435000000
C     4.252000000     0.412000000    -0.642000000
C     4.354000000    -0.926000000    -1.365000000
C     4.324000000    -1.060000000    -2.784000000
H     4.239000000    -0.174000000    -3.407000000
C     4.466000000    -2.061000000    -0.554000000
H     4.562000000    -1.903000000     0.517000000
O     4.970000000     0.356000000     0.634000000
H     3.181000000     0.504000000    -0.409000000
C     3.677000000     3.388000000    -0.323000000
C     4.545000000     3.291000000     0.923000000
H     4.565000000     4.224000000     1.490000000
H     5.608000000     3.117000000     0.742000000
C     3.880000000     2.188000000     1.797000000
C     4.216000000     0.831000000     1.699000000
C     3.595000000    -0.121000000     2.504000000
H     3.611000000    -1.167000000     2.208000000
C     2.699000000     0.340000000     3.449000000
O     2.010000000    -0.637000000     4.178000000
C     0.673000000    -0.933000000     4.151000000
H     0.310000000    -0.646000000     3.153000000
C     0.370000000    -2.441000000     4.185000000
C    -0.866000000    -2.897000000     4.596000000
H    -1.627000000    -2.276000000     5.064000000
C     1.253000000    -3.342000000     3.627000000
H     2.143000000    -3.001000000     3.105000000
C     0.956000000    -4.704000000     3.480000000
O     1.697000000    -5.620000000     2.856000000
C    -0.254000000    -5.099000000     3.973000000
H    -0.559000000    -6.138000000     3.878000000
C    -1.162000000    -4.263000000     4.584000000
O    -2.261000000    -4.658000000     5.198000000
C    -3.528000000    -4.147000000     5.059000000
C    -3.989000000    -3.696000000     3.755000000
H    -3.436000000    -4.047000000     2.888000000
C    -4.248000000    -3.872000000     6.164000000
H    -3.843000000    -4.070000000     7.153000000
C    -5.428000000    -3.122000000     6.047000000
H    -6.046000000    -2.778000000     6.873000000
C    -5.919000000    -2.748000000     4.816000000
H    -6.957000000    -2.440000000     4.716000000
C    -5.239000000    -3.046000000     3.630000000
O    -5.846000000    -2.778000000     2.469000000
C    -5.537000000    -1.820000000     1.544000000
C    -5.955000000    -1.896000000     0.250000000
H    -6.624000000    -2.673000000    -0.111000000
C    -5.569000000    -0.931000000    -0.674000000
O    -6.199000000    -0.921000000    -1.935000000
C    -5.838000000    -0.166000000    -2.943000000
C    -4.752000000    -0.551000000    -3.718000000
H    -4.057000000    -1.353000000    -3.481000000
C    -6.597000000     0.948000000    -3.286000000
H    -7.387000000     1.295000000    -2.624000000
C    -6.379000000     1.658000000    -4.444000000
H    -7.071000000     2.473000000    -4.645000000
C    -5.409000000     1.216000000    -5.308000000
H    -5.305000000     1.786000000    -6.228000000
C    -4.567000000     0.158000000    -4.914000000
O    -3.464000000    -0.064000000    -5.580000000
C    -2.196000000     0.338000000    -5.306000000
C    -1.217000000    -0.095000000    -6.232000000
H    -1.579000000    -0.744000000    -7.026000000
C     0.091000000     0.331000000    -6.169000000
O     0.886000000    -0.107000000    -7.224000000
C     2.247000000    -0.381000000    -7.060000000
C     2.548000000    -1.227000000    -5.996000000
H     1.713000000    -1.538000000    -5.375000000
C     3.278000000     0.118000000    -7.867000000
H     3.099000000     0.846000000    -8.654000000
C     4.590000000    -0.272000000    -7.677000000
H     5.330000000     0.172000000    -8.337000000
C     4.853000000    -1.084000000    -6.620000000
H     5.818000000    -1.408000000    -6.239000000
C     3.847000000    -1.563000000    -5.708000000
O     4.135000000    -2.474000000    -4.734000000
C     4.281000000    -2.314000000    -3.428000000
C     4.379000000    -3.427000000    -2.625000000
H     4.361000000    -4.435000000    -3.030000000
C     4.522000000    -3.300000000    -1.238000000
O     4.649000000    -4.542000000    -0.630000000
C     4.431000000    -4.744000000     0.697000000
C     5.411000000    -4.435000000     1.625000000
H     6.362000000    -4.110000000     1.211000000
C     5.109000000    -4.448000000     3.009000000
H     5.861000000    -4.315000000     3.783000000
C     3.844000000    -4.894000000     3.423000000
H     3.600000000    -5.049000000     4.471000000
C     2.933000000    -5.264000000     2.467000000
C     3.204000000    -5.156000000     1.103000000
H     2.428000000    -5.302000000     0.355000000
O    -4.839000000    -5.419000000    -0.437000000
H    -3.970000000    -5.063000000    -0.621000000
H    -5.413000000    -4.987000000    -1.070000000
O    -0.294000000    -8.841000000    -3.642000000
H     0.599000000    -8.623000000    -3.375000000
H    -0.848000000    -8.263000000    -3.119000000
O     2.079000000    -8.452000000     1.591000000
H     1.965000000    -9.398000000     1.686000000
H     1.336000000    -8.073000000     2.063000000
O    -0.404000000    -8.626000000     3.051000000
H    -0.883000000    -8.123000000     2.392000000
H    -0.856000000    -9.469000000     3.084000000
O    -2.556000000    -2.785000000    -5.268000000
H    -3.124000000    -2.015000000    -5.236000000
H    -2.891000000    -3.359000000    -4.579000000
O     3.292000000    -7.154000000    -1.958000000
H     3.979000000    -7.185000000    -1.293000000
H     2.512000000    -7.483000000    -1.512000000
O    -3.750000000    -3.845000000    -3.220000000
H    -4.670000000    -3.818000000    -2.960000000
H    -3.291000000    -4.167000000    -2.444000000
O     1.024000000    -8.716000000    -1.073000000
H     0.883000000    -9.650000000    -1.229000000
H     1.379000000    -8.672000000    -0.186000000
O    -6.430000000    -4.470000000    -2.409000000
H    -7.002000000    -5.238000000    -2.411000000
H    -6.856000000    -3.854000000    -3.006000000
O     2.327000000    -5.760000000    -4.306000000
H     1.690000000    -5.276000000    -3.781000000
H     2.805000000    -6.294000000    -3.671000000
O    -3.510000000    -9.064000000    -3.495000000
H    -2.984000000    -8.292000000    -3.286000000
H    -3.906000000    -9.317000000    -2.661000000
O    -4.070000000    -7.739000000     0.690000000
H    -3.163000000    -7.499000000     0.878000000
H    -4.436000000    -6.969000000     0.254000000
O     0.198000000    -3.483000000    -5.134000000
H     0.353000000    -3.633000000    -4.201000000
H    -0.676000000    -3.095000000    -5.172000000
O    -1.177000000    -7.413000000     0.614000000
H    -0.588000000    -7.881000000     0.022000000
H    -1.004000000    -6.487000000     0.442000000
O     0.774000000    -4.203000000    -2.542000000
H     1.156000000    -3.481000000    -2.043000000
H     0.414000000    -4.790000000    -1.878000000
O    -4.701000000    -9.999000000    -1.085000000
H    -4.646000000    -9.152000000    -0.642000000
H    -5.012000000   -10.603000000    -0.409000000
O    -2.213000000    -6.842000000    -2.502000000
H    -1.817000000    -6.441000000    -1.728000000
H    -2.628000000    -6.113000000    -2.963000000
O    -5.537000000    -8.776000000     2.612000000
H    -5.755000000    -9.612000000     2.200000000
H    -5.055000000    -8.296000000     1.939000000
O    -7.355000000    -5.505000000     1.001000000
H    -7.610000000    -6.243000000     0.448000000
H    -6.492000000    -5.248000000     0.676000000
