201
-1244.66677
C     2.637000000    -3.547000000     3.711000000
H     2.762000000    -4.059000000     2.760000000
C     1.322000000    -3.245000000     4.144000000
C     1.232000000    -2.453000000     5.326000000
H     0.307000000    -1.971000000     5.632000000
C     0.178000000    -3.337000000     3.166000000
O     0.148000000    -4.510000000     2.413000000
H    -0.027000000    -2.410000000     2.610000000
O    -1.027000000    -3.341000000     3.983000000
C    -2.156000000    -2.752000000     3.456000000
C    -2.377000000    -1.465000000     3.870000000
H    -1.660000000    -1.000000000     4.542000000
C    -3.363000000    -0.735000000     3.216000000
O    -3.391000000     0.608000000     3.390000000
C    -4.200000000    -1.309000000     2.301000000
C    -5.248000000    -0.482000000     1.629000000
H    -6.156000000    -1.039000000     1.389000000
C    -4.776000000     0.193000000     0.349000000
C    -4.786000000    -0.432000000    -0.903000000
H    -5.164000000    -1.436000000    -1.082000000
H    -5.724000000     0.274000000     2.257000000
C    -3.984000000    -2.623000000     1.852000000
H    -4.441000000    -3.101000000     0.990000000
C    -2.881000000    -3.307000000     2.418000000
C    -2.575000000    -4.704000000     1.856000000
H    -3.431000000    -5.282000000     1.501000000
H    -2.272000000    -5.365000000     2.672000000
C    -1.498000000    -4.531000000     0.709000000
C    -1.895000000    -4.562000000    -0.636000000
H    -2.935000000    -4.709000000    -0.917000000
C    -0.228000000    -4.478000000     1.093000000
C     0.717000000    -4.195000000     0.074000000
H     1.740000000    -4.034000000     0.404000000
C     0.392000000    -4.130000000    -1.256000000
O     1.401000000    -3.744000000    -2.142000000
C     1.300000000    -2.489000000    -2.813000000
C     2.747000000    -1.842000000    -2.766000000
C     3.253000000    -1.035000000    -3.770000000
H     2.765000000    -1.045000000    -4.741000000
C     3.545000000    -1.895000000    -1.560000000
H     3.109000000    -2.373000000    -0.687000000
O     0.747000000    -2.609000000    -4.117000000
H     0.645000000    -1.799000000    -2.261000000
C    -0.938000000    -4.393000000    -1.653000000
C    -1.366000000    -4.315000000    -3.084000000
H    -2.280000000    -4.906000000    -3.167000000
H    -0.684000000    -4.829000000    -3.764000000
C    -1.614000000    -2.952000000    -3.554000000
C    -2.863000000    -2.419000000    -3.292000000
H    -3.645000000    -2.931000000    -2.737000000
C    -0.554000000    -2.165000000    -4.121000000
C    -0.887000000    -0.917000000    -4.571000000
H    -0.056000000    -0.337000000    -4.964000000
C    -2.135000000    -0.410000000    -4.409000000
O    -2.388000000     0.938000000    -4.734000000
C    -2.209000000     1.815000000    -3.624000000
C    -1.233000000     2.933000000    -3.874000000
C    -0.149000000     2.735000000    -4.742000000
H     0.079000000     1.770000000    -5.188000000
C    -1.433000000     4.159000000    -3.283000000
H    -2.251000000     4.261000000    -2.574000000
O    -3.462000000     2.278000000    -3.056000000
H    -1.707000000     1.173000000    -2.884000000
C    -3.094000000    -1.117000000    -3.731000000
C    -4.455000000    -0.483000000    -3.393000000
H    -5.198000000    -1.273000000    -3.266000000
H    -4.774000000     0.195000000    -4.187000000
C    -4.357000000     0.254000000    -2.097000000
C    -4.043000000     1.542000000    -2.045000000
C    -4.014000000     2.178000000    -0.819000000
H    -3.653000000     3.203000000    -0.802000000
C    -4.329000000     1.538000000     0.361000000
O    -3.951000000     2.055000000     1.604000000
C    -2.887000000     1.420000000     2.295000000
H    -2.278000000     0.865000000     1.566000000
C    -1.847000000     2.485000000     2.845000000
C    -0.967000000     2.141000000     3.860000000
H    -1.048000000     1.187000000     4.375000000
C    -1.779000000     3.741000000     2.241000000
H    -2.542000000     3.952000000     1.495000000
C    -0.829000000     4.623000000     2.650000000
O    -0.581000000     5.871000000     2.083000000
C     0.076000000     4.315000000     3.648000000
H     0.714000000     5.122000000     4.000000000
C     0.008000000     3.095000000     4.294000000
O     0.828000000     2.930000000     5.351000000
C     0.575000000     1.910000000     6.331000000
C     1.424000000     0.798000000     6.168000000
H     2.000000000     0.610000000     5.265000000
C    -0.016000000     2.207000000     7.558000000
H    -0.420000000     3.193000000     7.773000000
C    -0.019000000     1.219000000     8.539000000
H    -0.659000000     1.293000000     9.415000000
C     0.802000000     0.066000000     8.344000000
H     0.898000000    -0.626000000     9.177000000
C     1.475000000    -0.121000000     7.187000000
O     2.330000000    -1.182000000     7.070000000
C     2.400000000    -2.040000000     5.949000000
C     3.664000000    -2.380000000     5.499000000
H     4.552000000    -2.152000000     6.084000000
C     3.802000000    -3.236000000     4.405000000
O     5.092000000    -3.575000000     3.918000000
C     5.278000000    -3.660000000     2.560000000
C     5.227000000    -2.548000000     1.755000000
H     5.033000000    -1.546000000     2.130000000
C     5.540000000    -4.888000000     1.878000000
H     5.368000000    -5.840000000     2.373000000
C     5.830000000    -4.968000000     0.492000000
H     6.055000000    -5.915000000     0.009000000
C     5.818000000    -3.799000000    -0.254000000
H     6.185000000    -3.823000000    -1.277000000
C     5.555000000    -2.646000000     0.414000000
O     5.590000000    -1.466000000    -0.322000000
C     4.721000000    -1.115000000    -1.388000000
C     5.043000000    -0.238000000    -2.442000000
H     6.026000000     0.220000000    -2.360000000
C     4.346000000    -0.184000000    -3.575000000
O     4.932000000     0.441000000    -4.666000000
C     4.155000000     1.029000000    -5.622000000
C     3.194000000     1.976000000    -5.264000000
H     3.023000000     2.297000000    -4.240000000
C     4.413000000     0.729000000    -6.962000000
H     5.109000000    -0.028000000    -7.314000000
C     3.678000000     1.333000000    -7.963000000
H     3.727000000     0.975000000    -8.989000000
C     2.732000000     2.297000000    -7.603000000
H     2.198000000     2.857000000    -8.367000000
C     2.504000000     2.665000000    -6.221000000
O     1.771000000     3.758000000    -5.976000000
C     0.617000000     3.848000000    -5.120000000
C     0.411000000     5.069000000    -4.448000000
H     0.994000000     5.941000000    -4.734000000
C    -0.541000000     5.207000000    -3.477000000
O    -0.669000000     6.408000000    -2.755000000
C    -1.202000000     6.617000000    -1.491000000
C    -2.304000000     7.534000000    -1.374000000
H    -2.629000000     8.063000000    -2.266000000
C    -2.826000000     7.821000000    -0.142000000
H    -3.645000000     8.526000000    -0.029000000
C    -2.349000000     7.169000000     1.011000000
H    -2.833000000     7.378000000     1.961000000
C    -1.339000000     6.234000000     0.934000000
C    -0.738000000     6.008000000    -0.313000000
H     0.061000000     5.276000000    -0.399000000
O     1.433000000     8.297000000    -0.621000000
H     2.125000000     7.684000000    -0.370000000
H     1.503000000     8.359000000    -1.573000000
O     8.813000000     1.713000000    -1.399000000
H     9.475000000     2.370000000    -1.184000000
H     8.143000000     1.818000000    -0.723000000
O     7.387000000     6.241000000     1.266000000
H     6.533000000     6.418000000     1.660000000
H     7.679000000     7.090000000     0.933000000
O     8.721000000    -0.292000000     2.584000000
H     7.915000000    -0.237000000     3.098000000
H     9.184000000     0.523000000     2.778000000
O     5.755000000     7.302000000     5.402000000
H     5.414000000     7.363000000     4.509000000
H     5.839000000     6.363000000     5.563000000
O     5.814000000     3.348000000    -2.778000000
H     5.916000000     2.554000000    -2.254000000
H     4.881000000     3.557000000    -2.716000000
O     2.177000000     6.207000000     1.128000000
H     1.342000000     5.939000000     1.511000000
H     2.699000000     5.404000000     1.105000000
O     4.862000000     5.781000000     0.264000000
H     4.376000000     4.998000000     0.520000000
H     4.494000000     6.025000000    -0.585000000
O     7.120000000     4.757000000     4.395000000
H     7.502000000     4.186000000     3.729000000
H     7.178000000     4.252000000     5.206000000
O     6.362000000     1.504000000     0.155000000
H     6.070000000     0.608000000    -0.011000000
H     5.572000000     1.965000000     0.440000000
O     3.211000000     3.940000000    -2.030000000
H     3.034000000     4.850000000    -2.269000000
H     3.055000000     3.906000000    -1.087000000
O     3.939000000     6.684000000    -3.022000000
H     3.621000000     7.581000000    -2.926000000
H     4.446000000     6.694000000    -3.833000000
O     7.681000000     3.520000000     2.048000000
H     7.136000000     2.858000000     1.621000000
H     7.464000000     4.336000000     1.596000000
O     4.061000000     4.187000000     7.429000000
H     3.728000000     4.353000000     6.547000000
H     4.163000000     3.237000000     7.472000000
O     7.877000000     4.786000000    -1.177000000
H     7.132000000     5.200000000    -0.742000000
H     7.482000000     4.188000000    -1.811000000
O     5.236000000     0.773000000     6.368000000
H     4.386000000     0.455000000     6.673000000
H     5.846000000     0.532000000     7.065000000
O     6.230000000     0.574000000     3.341000000
H     5.642000000     0.841000000     2.633000000
H     5.961000000     1.108000000     4.089000000
O     4.364000000     4.043000000     3.821000000
H     4.300000000     3.539000000     3.010000000
H     5.296000000     4.241000000     3.907000000
O     4.963000000     7.650000000     3.006000000
H     4.740000000     8.464000000     2.554000000
H     4.237000000     7.058000000     2.807000000
