201
-1245.06830
C    -5.241000000     0.286000000    -0.276000000
H    -4.907000000     1.051000000    -0.973000000
C    -4.820000000     0.415000000     1.094000000
C    -5.128000000    -0.578000000     1.973000000
H    -4.681000000    -0.679000000     2.959000000
C    -4.015000000     1.558000000     1.487000000
O    -4.343000000     2.791000000     0.841000000
H    -2.979000000     1.287000000     1.236000000
O    -4.097000000     1.738000000     2.910000000
C    -2.839000000     1.857000000     3.520000000
C    -2.241000000     0.727000000     4.056000000
H    -2.754000000    -0.209000000     4.266000000
C    -0.889000000     0.727000000     4.441000000
O    -0.282000000    -0.427000000     4.833000000
C    -0.091000000     1.894000000     4.356000000
C     1.333000000     2.020000000     4.816000000
H     1.468000000     3.077000000     5.054000000
C     2.340000000     1.608000000     3.726000000
C     2.874000000     2.509000000     2.831000000
H     2.604000000     3.557000000     2.938000000
H     1.589000000     1.462000000     5.719000000
C    -0.689000000     3.058000000     3.835000000
H    -0.146000000     3.996000000     3.758000000
C    -2.051000000     3.026000000     3.352000000
C    -2.677000000     4.278000000     2.759000000
H    -2.294000000     5.145000000     3.302000000
H    -3.753000000     4.181000000     2.918000000
C    -2.467000000     4.256000000     1.221000000
C    -1.345000000     4.776000000     0.658000000
H    -0.628000000     5.164000000     1.378000000
C    -3.336000000     3.549000000     0.369000000
C    -3.037000000     3.571000000    -1.013000000
H    -3.710000000     3.059000000    -1.696000000
C    -1.884000000     4.176000000    -1.541000000
O    -1.528000000     3.832000000    -2.838000000
C    -0.435000000     2.866000000    -2.958000000
C    -0.700000000     1.887000000    -4.081000000
C     0.320000000     1.380000000    -4.914000000
H     1.341000000     1.706000000    -4.736000000
C    -2.020000000     1.345000000    -4.167000000
H    -2.817000000     1.610000000    -3.478000000
O     0.818000000     3.527000000    -3.186000000
H    -0.309000000     2.243000000    -2.060000000
C    -0.923000000     4.664000000    -0.686000000
C     0.371000000     5.393000000    -1.052000000
H     0.657000000     6.257000000    -0.448000000
H     0.169000000     5.831000000    -2.032000000
C     1.561000000     4.369000000    -1.177000000
C     2.497000000     4.324000000    -0.103000000
H     2.231000000     5.017000000     0.691000000
C     1.815000000     3.577000000    -2.310000000
C     2.900000000     2.694000000    -2.342000000
H     2.942000000     1.967000000    -3.149000000
C     3.790000000     2.644000000    -1.324000000
O     4.735000000     1.618000000    -1.379000000
C     4.277000000     0.414000000    -0.681000000
C     4.555000000    -0.857000000    -1.474000000
C     4.597000000    -0.922000000    -2.903000000
H     4.614000000    -0.035000000    -3.532000000
C     4.409000000    -2.109000000    -0.811000000
H     4.270000000    -2.033000000     0.264000000
O     4.878000000     0.397000000     0.632000000
H     3.182000000     0.431000000    -0.580000000
C     3.571000000     3.443000000    -0.172000000
C     4.464000000     3.244000000     1.050000000
H     4.455000000     4.204000000     1.570000000
H     5.483000000     3.059000000     0.705000000
C     3.794000000     2.160000000     1.866000000
C     4.055000000     0.781000000     1.690000000
C     3.606000000    -0.192000000     2.645000000
H     3.917000000    -1.228000000     2.544000000
C     2.753000000     0.280000000     3.634000000
O     2.092000000    -0.582000000     4.475000000
C     0.773000000    -0.995000000     4.000000000
H     0.484000000    -0.735000000     2.972000000
C     0.650000000    -2.485000000     4.088000000
C    -0.665000000    -3.105000000     3.975000000
H    -1.529000000    -2.448000000     4.029000000
C     1.761000000    -3.282000000     3.950000000
H     2.774000000    -2.889000000     3.937000000
C     1.664000000    -4.679000000     3.844000000
O     2.795000000    -5.416000000     3.681000000
C     0.432000000    -5.244000000     3.674000000
H     0.405000000    -6.322000000     3.539000000
C    -0.751000000    -4.459000000     3.697000000
O    -2.032000000    -5.050000000     3.544000000
C    -3.213000000    -4.407000000     3.967000000
C    -4.107000000    -3.931000000     2.998000000
H    -3.932000000    -4.154000000     1.948000000
C    -3.419000000    -4.106000000     5.301000000
H    -2.794000000    -4.433000000     6.128000000
C    -4.541000000    -3.372000000     5.694000000
H    -4.607000000    -3.088000000     6.741000000
C    -5.405000000    -2.893000000     4.740000000
H    -6.186000000    -2.187000000     5.009000000
C    -5.246000000    -3.246000000     3.402000000
O    -6.142000000    -2.650000000     2.558000000
C    -5.810000000    -1.720000000     1.591000000
C    -6.268000000    -1.806000000     0.341000000
H    -6.965000000    -2.594000000     0.069000000
C    -5.976000000    -0.824000000    -0.610000000
O    -6.583000000    -0.957000000    -1.889000000
C    -6.204000000    -0.158000000    -2.901000000
C    -5.005000000    -0.560000000    -3.554000000
H    -4.436000000    -1.454000000    -3.311000000
C    -6.925000000     0.976000000    -3.270000000
H    -7.863000000     1.250000000    -2.795000000
C    -6.531000000     1.714000000    -4.417000000
H    -7.090000000     2.613000000    -4.663000000
C    -5.349000000     1.319000000    -5.070000000
H    -5.083000000     1.842000000    -5.985000000
C    -4.626000000     0.172000000    -4.668000000
O    -3.505000000    -0.117000000    -5.357000000
C    -2.289000000     0.390000000    -5.124000000
C    -1.291000000    -0.105000000    -6.012000000
H    -1.427000000    -0.922000000    -6.715000000
C     0.039000000     0.380000000    -5.899000000
O     0.941000000    -0.205000000    -6.696000000
C     2.331000000    -0.168000000    -6.551000000
C     2.875000000    -1.171000000    -5.809000000
H     2.343000000    -1.949000000    -5.267000000
C     3.026000000     0.683000000    -7.338000000
H     2.452000000     1.261000000    -8.057000000
C     4.395000000     0.545000000    -7.365000000
H     4.991000000     1.116000000    -8.073000000
C     5.008000000    -0.330000000    -6.458000000
H     6.082000000    -0.496000000    -6.479000000
C     4.249000000    -1.249000000    -5.663000000
O     4.872000000    -2.126000000    -4.930000000
C     4.747000000    -2.136000000    -3.514000000
C     4.719000000    -3.385000000    -2.839000000
H     4.866000000    -4.316000000    -3.380000000
C     4.500000000    -3.310000000    -1.491000000
O     4.200000000    -4.485000000    -0.806000000
C     4.463000000    -4.698000000     0.542000000
C     5.764000000    -4.763000000     0.941000000
H     6.609000000    -4.382000000     0.374000000
C     6.085000000    -5.148000000     2.187000000
H     7.130000000    -5.100000000     2.483000000
C     5.108000000    -5.359000000     3.164000000
H     5.430000000    -5.547000000     4.185000000
C     3.776000000    -5.274000000     2.779000000
C     3.431000000    -5.021000000     1.453000000
H     2.416000000    -4.977000000     1.066000000
O    -4.479000000    -5.132000000    -1.057000000
H    -3.737000000    -4.585000000    -1.313000000
H    -4.888000000    -5.384000000    -1.885000000
O     0.543000000    -8.499000000    -4.043000000
H     1.285000000    -8.222000000    -4.581000000
H     0.091000000    -7.685000000    -3.822000000
O    -1.067000000    -8.317000000     3.206000000
H    -1.459000000    -8.124000000     2.354000000
H    -0.420000000    -8.998000000     3.023000000
O    -3.945000000    -3.728000000    -7.434000000
H    -4.734000000    -3.189000000    -7.497000000
H    -3.698000000    -3.684000000    -6.511000000
O     3.737000000    -6.673000000    -2.601000000
H     3.159000000    -5.914000000    -2.682000000
H     3.495000000    -7.070000000    -1.764000000
O    -3.751000000    -4.429000000    -4.306000000
H    -4.658000000    -4.607000000    -4.055000000
H    -3.357000000    -4.043000000    -3.524000000
O    -0.936000000    -5.796000000    -6.287000000
H    -1.367000000    -5.110000000    -6.797000000
H    -1.639000000    -6.184000000    -5.766000000
O    -5.922000000    -5.902000000    -3.232000000
H    -6.230000000    -6.179000000    -4.095000000
H    -6.590000000    -5.289000000    -2.925000000
O     2.761000000    -7.569000000    -5.142000000
H     2.437000000    -6.688000000    -5.329000000
H     3.210000000    -7.486000000    -4.300000000
O    -4.012000000    -7.856000000    -2.887000000
H    -3.106000000    -7.612000000    -3.076000000
H    -4.537000000    -7.222000000    -3.376000000
O    -3.788000000    -8.363000000     0.783000000
H    -4.171000000    -7.929000000     1.545000000
H    -3.152000000    -7.733000000     0.443000000
O    -1.135000000   -10.034000000    -0.991000000
H    -1.537000000   -10.389000000    -0.198000000
H    -1.393000000    -9.112000000    -0.998000000
O     1.556000000    -5.144000000    -5.375000000
H     1.565000000    -4.677000000    -4.539000000
H     0.631000000    -5.182000000    -5.618000000
O    -1.795000000    -6.548000000     0.447000000
H    -1.777000000    -5.999000000    -0.336000000
H    -1.497000000    -5.971000000     1.151000000
O     1.692000000    -4.533000000    -2.694000000
H     2.233000000    -3.989000000    -2.123000000
H     0.989000000    -4.850000000    -2.128000000
O    -4.048000000   -10.093000000    -1.371000000
H    -4.099000000    -9.398000000    -2.028000000
H    -3.928000000    -9.631000000    -0.542000000
O    -1.826000000    -6.155000000    -3.556000000
H    -1.470000000    -5.838000000    -2.726000000
H    -2.276000000    -5.397000000    -3.929000000
O    -3.770000000    -7.422000000     3.481000000
H    -3.481000000    -8.202000000     3.954000000
H    -3.009000000    -6.841000000     3.490000000
O    -6.149000000    -6.349000000     0.801000000
H    -6.069000000    -7.250000000     0.488000000
H    -5.641000000    -5.832000000     0.176000000
