201
-1235.86343
C     2.360000000    -4.106000000     2.972000000
H     2.382000000    -4.611000000     2.009000000
C     1.206000000    -3.508000000     3.418000000
C     1.273000000    -2.813000000     4.576000000
H     0.421000000    -2.193000000     4.840000000
C    -0.077000000    -3.586000000     2.600000000
O    -0.291000000    -4.807000000     1.837000000
H    -0.156000000    -2.803000000     1.831000000
O    -1.178000000    -3.443000000     3.494000000
C    -2.182000000    -2.536000000     3.258000000
C    -2.091000000    -1.229000000     3.701000000
H    -1.217000000    -1.031000000     4.315000000
C    -3.062000000    -0.264000000     3.360000000
O    -2.758000000     0.995000000     3.757000000
C    -4.114000000    -0.628000000     2.526000000
C    -5.077000000     0.432000000     1.916000000
H    -5.988000000    -0.050000000     1.556000000
C    -4.580000000     1.338000000     0.821000000
C    -5.036000000     1.022000000    -0.487000000
H    -5.651000000     0.149000000    -0.691000000
H    -5.427000000     1.074000000     2.727000000
C    -4.151000000    -1.942000000     2.058000000
H    -4.895000000    -2.081000000     1.278000000
C    -3.256000000    -2.908000000     2.428000000
C    -3.317000000    -4.361000000     1.772000000
H    -4.307000000    -4.658000000     1.419000000
H    -3.007000000    -5.020000000     2.586000000
C    -2.362000000    -4.375000000     0.548000000
C    -2.919000000    -4.067000000    -0.666000000
H    -3.967000000    -3.778000000    -0.683000000
C    -1.020000000    -4.621000000     0.611000000
C    -0.295000000    -4.722000000    -0.548000000
H     0.783000000    -4.861000000    -0.534000000
C    -0.836000000    -4.490000000    -1.815000000
O     0.042000000    -4.206000000    -2.844000000
C     0.321000000    -2.898000000    -3.163000000
C     1.843000000    -2.633000000    -3.381000000
C     2.244000000    -1.992000000    -4.542000000
H     1.550000000    -1.754000000    -5.344000000
C     2.713000000    -2.895000000    -2.303000000
H     2.486000000    -3.365000000    -1.350000000
O    -0.429000000    -2.563000000    -4.307000000
H    -0.086000000    -2.202000000    -2.415000000
C    -2.207000000    -4.111000000    -1.886000000
C    -2.819000000    -3.637000000    -3.200000000
H    -3.899000000    -3.790000000    -3.243000000
H    -2.353000000    -4.190000000    -4.019000000
C    -2.635000000    -2.191000000    -3.436000000
C    -3.659000000    -1.356000000    -3.102000000
H    -4.506000000    -1.614000000    -2.471000000
C    -1.442000000    -1.672000000    -3.971000000
C    -1.362000000    -0.350000000    -4.396000000
H    -0.470000000     0.073000000    -4.850000000
C    -2.316000000     0.512000000    -3.941000000
O    -2.009000000     1.842000000    -4.077000000
C    -1.827000000     2.682000000    -2.939000000
C    -0.636000000     3.665000000    -3.180000000
C     0.425000000     3.282000000    -3.934000000
H     0.343000000     2.364000000    -4.510000000
C    -0.480000000     4.800000000    -2.384000000
H    -1.200000000     5.037000000    -1.604000000
O    -2.986000000     3.329000000    -2.520000000
H    -1.431000000     2.108000000    -2.088000000
C    -3.453000000     0.072000000    -3.286000000
C    -4.580000000     1.068000000    -2.956000000
H    -5.565000000     0.610000000    -2.845000000
H    -4.831000000     1.772000000    -3.752000000
C    -4.469000000     1.693000000    -1.554000000
C    -3.645000000     2.811000000    -1.428000000
C    -3.218000000     3.114000000    -0.120000000
H    -2.480000000     3.874000000     0.123000000
C    -3.638000000     2.354000000     0.952000000
O    -3.220000000     2.639000000     2.223000000
C    -2.164000000     1.831000000     2.750000000
H    -1.840000000     1.240000000     1.881000000
C    -1.095000000     2.732000000     3.341000000
C    -0.157000000     2.149000000     4.183000000
H    -0.210000000     1.072000000     4.324000000
C    -0.979000000     4.036000000     2.928000000
H    -1.673000000     4.368000000     2.160000000
C     0.135000000     4.719000000     3.196000000
O     0.415000000     6.005000000     2.755000000
C     1.124000000     4.110000000     3.993000000
H     2.001000000     4.685000000     4.278000000
C     0.992000000     2.857000000     4.508000000
O     1.877000000     2.494000000     5.514000000
C     1.777000000     1.366000000     6.357000000
C     2.163000000     0.113000000     5.904000000
H     2.592000000    -0.203000000     4.957000000
C     1.396000000     1.513000000     7.687000000
H     1.134000000     2.500000000     8.059000000
C     1.350000000     0.448000000     8.567000000
H     1.088000000     0.554000000     9.617000000
C     1.644000000    -0.773000000     8.117000000
H     1.524000000    -1.550000000     8.867000000
C     2.080000000    -0.939000000     6.811000000
O     2.440000000    -2.158000000     6.544000000
C     2.445000000    -2.807000000     5.311000000
C     3.562000000    -3.467000000     4.906000000
H     4.441000000    -3.532000000     5.542000000
C     3.539000000    -3.999000000     3.625000000
O     4.679000000    -4.588000000     3.113000000
C     4.891000000    -4.664000000     1.743000000
C     4.880000000    -3.568000000     0.892000000
H     4.658000000    -2.598000000     1.331000000
C     5.051000000    -5.949000000     1.200000000
H     5.036000000    -6.800000000     1.877000000
C     5.069000000    -6.148000000    -0.160000000
H     5.057000000    -7.126000000    -0.636000000
C     4.997000000    -5.016000000    -1.015000000
H     4.886000000    -5.216000000    -2.078000000
C     4.898000000    -3.714000000    -0.500000000
O     4.923000000    -2.683000000    -1.381000000
C     4.039000000    -2.440000000    -2.430000000
C     4.460000000    -1.741000000    -3.578000000
H     5.529000000    -1.577000000    -3.682000000
C     3.514000000    -1.468000000    -4.581000000
O     3.879000000    -0.685000000    -5.631000000
C     3.285000000     0.491000000    -6.126000000
C     2.960000000     1.557000000    -5.274000000
H     3.256000000     1.476000000    -4.232000000
C     3.050000000     0.482000000    -7.526000000
H     3.325000000    -0.373000000    -8.139000000
C     2.722000000     1.666000000    -8.107000000
H     2.756000000     1.758000000    -9.189000000
C     2.379000000     2.759000000    -7.285000000
H     1.971000000     3.671000000    -7.712000000
C     2.473000000     2.732000000    -5.900000000
O     2.356000000     3.910000000    -5.230000000
C     1.527000000     4.132000000    -4.148000000
C     1.648000000     5.367000000    -3.493000000
H     2.401000000     6.100000000    -3.770000000
C     0.620000000     5.720000000    -2.594000000
O     0.764000000     6.868000000    -1.929000000
C     0.138000000     7.067000000    -0.667000000
C    -1.170000000     7.535000000    -0.673000000
H    -1.701000000     7.724000000    -1.602000000
C    -1.966000000     7.466000000     0.491000000
H    -3.001000000     7.790000000     0.413000000
C    -1.381000000     7.053000000     1.663000000
H    -1.949000000     7.068000000     2.590000000
C    -0.159000000     6.419000000     1.619000000
C     0.698000000     6.496000000     0.501000000
H     1.615000000     5.928000000     0.361000000
O     6.497000000     6.221000000     1.992000000
H     5.549000000     6.206000000     2.124000000
H     6.657000000     5.551000000     1.328000000
O     8.430000000    -3.061000000     0.291000000
H     9.329000000    -2.736000000     0.255000000
H     7.898000000    -2.330000000    -0.022000000
O     5.606000000     0.795000000     6.103000000
H     5.946000000     0.327000000     5.340000000
H     4.857000000     1.287000000     5.767000000
O     7.161000000    -0.512000000    -0.532000000
H     6.362000000    -0.079000000    -0.233000000
H     7.865000000    -0.073000000    -0.053000000
O     5.483000000     1.472000000    -2.413000000
H     5.369000000     0.972000000    -1.605000000
H     6.431000000     1.555000000    -2.513000000
O     7.201000000     5.122000000    -0.602000000
H     7.880000000     5.515000000    -1.150000000
H     6.394000000     5.565000000    -0.865000000
O     4.474000000     4.026000000    -3.184000000
H     3.989000000     3.824000000    -3.984000000
H     4.709000000     3.171000000    -2.824000000
O     9.318000000    -0.328000000     1.820000000
H     8.938000000    -0.748000000     2.592000000
H    10.158000000     0.016000000     2.124000000
O     8.085000000    -0.923000000    -3.057000000
H     7.861000000    -0.801000000    -2.135000000
H     7.663000000    -1.747000000    -3.300000000
O     3.784000000     4.985000000     2.226000000
H     3.662000000     4.422000000     2.990000000
H     4.119000000     4.399000000     1.547000000
O     6.770000000     3.543000000     4.350000000
H     7.277000000     2.980000000     3.765000000
H     5.866000000     3.248000000     4.242000000
O     7.459000000    -2.789000000     2.957000000
H     7.748000000    -3.054000000     2.084000000
H     7.373000000    -3.611000000     3.441000000
O     4.115000000     2.653000000     3.792000000
H     3.280000000     2.393000000     4.183000000
H     4.309000000     1.961000000     3.160000000
O     5.081000000     3.529000000     0.220000000
H     6.022000000     3.474000000     0.056000000
H     4.760000000     2.638000000     0.080000000
O     7.720000000     1.910000000     1.870000000
H     6.778000000     1.799000000     1.736000000
H     8.018000000     1.059000000     2.191000000
O     8.149000000    -1.206000000     6.235000000
H     7.352000000    -0.939000000     5.777000000
H     8.149000000    -2.162000000     6.179000000
O     9.091000000     3.174000000    -0.148000000
H     8.698000000     2.830000000     0.654000000
H     8.433000000     3.775000000    -0.498000000
O     6.222000000    -0.828000000     4.034000000
H     6.774000000    -1.508000000     3.647000000
H     5.924000000    -0.308000000     3.288000000
O     4.010000000     5.725000000    -1.263000000
H     3.698000000     5.086000000    -0.622000000
H     4.072000000     5.233000000    -2.081000000
