201
-1239.01989
C     2.774000000    -4.324000000     1.764000000
H     2.799000000    -4.382000000     0.678000000
C     1.523000000    -4.165000000     2.380000000
C     1.499000000    -3.940000000     3.737000000
H     0.589000000    -3.761000000     4.304000000
C     0.208000000    -4.031000000     1.667000000
O     0.176000000    -4.900000000     0.553000000
H     0.128000000    -3.008000000     1.270000000
O    -0.911000000    -4.332000000     2.434000000
C    -2.019000000    -3.536000000     2.301000000
C    -2.225000000    -2.541000000     3.263000000
H    -1.505000000    -2.417000000     4.068000000
C    -3.247000000    -1.583000000     3.042000000
O    -3.190000000    -0.451000000     3.789000000
C    -4.147000000    -1.786000000     2.037000000
C    -5.191000000    -0.751000000     1.771000000
H    -5.990000000    -1.108000000     1.118000000
C    -4.731000000     0.425000000     0.862000000
C    -4.890000000     0.444000000    -0.520000000
H    -5.355000000    -0.368000000    -1.073000000
H    -5.635000000    -0.294000000     2.658000000
C    -4.009000000    -2.819000000     1.098000000
H    -4.626000000    -2.929000000     0.210000000
C    -2.862000000    -3.674000000     1.220000000
C    -2.751000000    -4.869000000     0.323000000
H    -3.761000000    -5.112000000    -0.017000000
H    -2.302000000    -5.702000000     0.868000000
C    -1.803000000    -4.546000000    -0.817000000
C    -2.313000000    -4.041000000    -2.006000000
H    -3.378000000    -3.840000000    -2.096000000
C    -0.435000000    -4.569000000    -0.623000000
C     0.404000000    -4.113000000    -1.600000000
H     1.445000000    -4.207000000    -1.302000000
C    -0.087000000    -3.613000000    -2.811000000
O     0.780000000    -3.064000000    -3.653000000
C     0.969000000    -1.663000000    -3.645000000
C     2.416000000    -1.227000000    -3.677000000
C     2.703000000    -0.029000000    -4.333000000
H     1.953000000     0.643000000    -4.742000000
C     3.428000000    -1.988000000    -3.074000000
H     3.243000000    -2.937000000    -2.577000000
O     0.216000000    -1.117000000    -4.728000000
H     0.528000000    -1.226000000    -2.737000000
C    -1.456000000    -3.624000000    -2.974000000
C    -2.017000000    -2.850000000    -4.240000000
H    -3.012000000    -3.120000000    -4.599000000
H    -1.352000000    -2.962000000    -5.099000000
C    -2.103000000    -1.376000000    -4.117000000
C    -3.284000000    -0.792000000    -3.634000000
H    -4.189000000    -1.309000000    -3.326000000
C    -0.946000000    -0.574000000    -4.383000000
C    -0.999000000     0.826000000    -4.197000000
H    -0.109000000     1.388000000    -4.468000000
C    -2.139000000     1.378000000    -3.670000000
O    -2.218000000     2.799000000    -3.531000000
C    -1.889000000     3.236000000    -2.220000000
C    -0.959000000     4.458000000    -2.159000000
C     0.208000000     4.520000000    -2.957000000
H     0.397000000     3.793000000    -3.743000000
C    -1.212000000     5.490000000    -1.219000000
H    -2.109000000     5.582000000    -0.612000000
O    -3.104000000     3.500000000    -1.482000000
H    -1.372000000     2.376000000    -1.769000000
C    -3.274000000     0.613000000    -3.335000000
C    -4.559000000     1.233000000    -2.797000000
H    -5.372000000     0.522000000    -2.960000000
H    -4.872000000     2.190000000    -3.219000000
C    -4.455000000     1.507000000    -1.293000000
C    -3.724000000     2.497000000    -0.727000000
C    -3.609000000     2.589000000     0.653000000
H    -3.193000000     3.458000000     1.156000000
C    -4.122000000     1.599000000     1.485000000
O    -3.780000000     1.631000000     2.810000000
C    -2.729000000     0.752000000     3.141000000
H    -2.260000000     0.440000000     2.196000000
C    -1.664000000     1.490000000     3.930000000
C    -0.779000000     0.821000000     4.771000000
H    -1.001000000    -0.209000000     5.036000000
C    -1.494000000     2.899000000     3.748000000
H    -2.183000000     3.530000000     3.191000000
C    -0.301000000     3.568000000     4.138000000
O     0.037000000     4.842000000     3.927000000
C     0.584000000     2.840000000     4.894000000
H     1.445000000     3.324000000     5.348000000
C     0.343000000     1.449000000     5.288000000
O     1.377000000     0.794000000     5.951000000
C     1.285000000    -0.487000000     6.536000000
C     2.015000000    -1.516000000     5.930000000
H     2.806000000    -1.304000000     5.215000000
C     0.277000000    -0.852000000     7.433000000
H    -0.333000000    -0.124000000     7.963000000
C     0.009000000    -2.213000000     7.753000000
H    -0.665000000    -2.647000000     8.487000000
C     0.899000000    -3.173000000     7.233000000
H     0.848000000    -4.210000000     7.555000000
C     1.929000000    -2.816000000     6.417000000
O     2.716000000    -3.833000000     5.862000000
C     2.716000000    -3.988000000     4.504000000
C     3.955000000    -4.267000000     3.890000000
H     4.898000000    -4.299000000     4.431000000
C     3.984000000    -4.231000000     2.504000000
O     5.161000000    -4.161000000     1.771000000
C     5.398000000    -4.359000000     0.385000000
C     5.631000000    -3.216000000    -0.454000000
H     5.617000000    -2.217000000    -0.027000000
C     5.212000000    -5.600000000    -0.175000000
H     5.081000000    -6.466000000     0.468000000
C     5.395000000    -5.784000000    -1.541000000
H     5.175000000    -6.756000000    -1.975000000
C     5.507000000    -4.645000000    -2.362000000
H     5.448000000    -4.879000000    -3.422000000
C     5.620000000    -3.363000000    -1.819000000
O     5.780000000    -2.235000000    -2.606000000
C     4.759000000    -1.538000000    -3.127000000
C     5.029000000    -0.402000000    -3.847000000
H     6.077000000    -0.184000000    -4.036000000
C     4.078000000     0.457000000    -4.375000000
O     4.388000000     1.671000000    -4.865000000
C     3.650000000     2.755000000    -5.216000000
C     3.381000000     3.773000000    -4.270000000
H     3.895000000     3.686000000    -3.316000000
C     3.065000000     2.906000000    -6.483000000
H     3.240000000     2.137000000    -7.231000000
C     2.326000000     4.004000000    -6.835000000
H     1.864000000     4.150000000    -7.809000000
C     2.025000000     4.972000000    -5.863000000
H     1.398000000     5.834000000    -6.076000000
C     2.647000000     4.892000000    -4.589000000
O     2.320000000     5.687000000    -3.549000000
C     1.155000000     5.540000000    -2.750000000
C     0.979000000     6.483000000    -1.780000000
H     1.603000000     7.350000000    -1.582000000
C    -0.202000000     6.463000000    -1.034000000
O    -0.387000000     7.435000000    -0.047000000
C    -0.888000000     7.058000000     1.206000000
C    -2.138000000     7.473000000     1.581000000
H    -2.775000000     8.086000000     0.947000000
C    -2.732000000     6.924000000     2.762000000
H    -3.733000000     7.169000000     3.107000000
C    -1.949000000     6.041000000     3.521000000
H    -2.379000000     5.576000000     4.404000000
C    -0.677000000     5.685000000     3.156000000
C    -0.163000000     6.156000000     1.951000000
H     0.830000000     5.780000000     1.716000000
O     4.690000000     5.473000000    -1.158000000
H     5.333000000     4.835000000    -1.465000000
H     4.276000000     5.053000000    -0.403000000
O     3.669000000     4.261000000     1.131000000
H     3.111000000     3.517000000     1.359000000
H     4.395000000     4.215000000     1.753000000
O     5.526000000    -0.810000000     4.180000000
H     6.026000000    -0.959000000     3.378000000
H     5.235000000     0.100000000     4.115000000
O     6.459000000    -2.518000000     5.921000000
H     5.823000000    -2.497000000     6.636000000
H     6.109000000    -1.908000000     5.272000000
O     7.584000000    -4.188000000     3.855000000
H     7.311000000    -3.717000000     3.068000000
H     7.258000000    -3.655000000     4.580000000
O     7.862000000     1.574000000     6.066000000
H     8.103000000     0.684000000     5.806000000
H     7.437000000     1.942000000     5.291000000
O     4.442000000     2.583000000     5.581000000
H     4.065000000     2.153000000     4.814000000
H     4.103000000     2.086000000     6.325000000
O     9.405000000     3.302000000     2.866000000
H     8.526000000     3.626000000     3.063000000
H     9.327000000     2.350000000     2.920000000
O     2.961000000     4.860000000     7.096000000
H     3.675000000     4.308000000     6.778000000
H     2.747000000     5.427000000     6.355000000
O     7.843000000     4.072000000     0.375000000
H     7.822000000     3.216000000     0.802000000
H     7.647000000     3.887000000    -0.544000000
O     4.979000000     1.706000000    -1.101000000
H     5.275000000     1.386000000    -0.248000000
H     4.402000000     1.016000000    -1.428000000
O     6.486000000     2.953000000     3.644000000
H     6.208000000     2.506000000     2.844000000
H     5.713000000     2.938000000     4.208000000
O     7.546000000     1.478000000     1.226000000
H     6.650000000     1.196000000     1.413000000
H     8.055000000     1.171000000     1.976000000
O     6.625000000     5.462000000     2.452000000
H     6.535000000     4.607000000     2.872000000
H     6.900000000     5.261000000     1.557000000
O     9.118000000     0.484000000     3.192000000
H     9.101000000    -0.193000000     3.869000000
H    10.048000000     0.611000000     3.003000000
O     8.767000000    -1.254000000     5.143000000
H     7.955000000    -1.692000000     5.398000000
H     9.460000000    -1.833000000     5.459000000
O    10.129000000     1.553000000    -0.011000000
H    10.666000000     1.187000000     0.691000000
H     9.232000000     1.318000000     0.226000000
O     6.361000000     3.619000000    -1.982000000
H     5.933000000     2.818000000    -1.679000000
H     6.556000000     3.453000000    -2.904000000
O     7.220000000    -1.520000000     2.202000000
H     7.552000000    -2.159000000     1.571000000
H     8.000000000    -1.052000000     2.501000000
