201
-1232.93756
C     3.206000000    -2.740000000     3.190000000
H     3.581000000    -3.353000000     2.375000000
C     1.828000000    -2.623000000     3.493000000
C     1.444000000    -1.686000000     4.448000000
H     0.374000000    -1.637000000     4.632000000
C     0.705000000    -3.308000000     2.683000000
O     1.236000000    -4.376000000     1.915000000
H     0.299000000    -2.534000000     2.015000000
O    -0.433000000    -3.735000000     3.491000000
C    -1.648000000    -3.531000000     2.907000000
C    -2.333000000    -2.407000000     3.366000000
H    -1.904000000    -1.825000000     4.178000000
C    -3.424000000    -1.913000000     2.632000000
O    -3.985000000    -0.714000000     2.999000000
C    -3.905000000    -2.630000000     1.536000000
C    -5.207000000    -2.170000000     0.799000000
H    -5.668000000    -3.042000000     0.329000000
C    -4.791000000    -1.072000000    -0.186000000
C    -4.445000000    -1.455000000    -1.456000000
H    -4.513000000    -2.513000000    -1.696000000
H    -5.898000000    -1.873000000     1.591000000
C    -3.176000000    -3.718000000     1.084000000
H    -3.418000000    -4.248000000     0.166000000
C    -2.048000000    -4.215000000     1.773000000
C    -1.233000000    -5.355000000     1.130000000
H    -1.861000000    -6.009000000     0.521000000
H    -0.713000000    -6.011000000     1.832000000
C    -0.216000000    -4.821000000     0.137000000
C    -0.555000000    -4.775000000    -1.204000000
H    -1.563000000    -5.099000000    -1.449000000
C     1.002000000    -4.283000000     0.565000000
C     2.028000000    -3.913000000    -0.333000000
H     2.987000000    -3.525000000     0.001000000
C     1.716000000    -3.945000000    -1.727000000
O     2.611000000    -3.423000000    -2.573000000
C     2.397000000    -2.059000000    -2.855000000
C     3.691000000    -1.221000000    -2.903000000
C     3.851000000    -0.182000000    -3.854000000
H     3.204000000    -0.156000000    -4.727000000
C     4.623000000    -1.338000000    -1.866000000
H     4.497000000    -2.074000000    -1.077000000
O     1.741000000    -2.172000000    -4.196000000
H     1.788000000    -1.574000000    -2.077000000
C     0.395000000    -4.322000000    -2.106000000
C    -0.007000000    -4.264000000    -3.587000000
H    -0.840000000    -4.898000000    -3.900000000
H     0.829000000    -4.525000000    -4.240000000
C    -0.497000000    -2.901000000    -4.040000000
C    -1.878000000    -2.577000000    -4.045000000
H    -2.535000000    -3.340000000    -3.636000000
C     0.389000000    -1.931000000    -4.341000000
C    -0.084000000    -0.586000000    -4.541000000
H     0.664000000     0.192000000    -4.666000000
C    -1.451000000    -0.276000000    -4.465000000
O    -1.709000000     1.056000000    -4.386000000
C    -1.949000000     1.698000000    -3.176000000
C    -1.143000000     2.922000000    -3.063000000
C    -0.052000000     3.279000000    -3.888000000
H     0.316000000     2.624000000    -4.673000000
C    -1.456000000     3.812000000    -2.034000000
H    -2.160000000     3.548000000    -1.249000000
O    -3.438000000     1.851000000    -2.929000000
H    -1.408000000     1.076000000    -2.447000000
C    -2.379000000    -1.254000000    -4.248000000
C    -3.881000000    -0.956000000    -3.887000000
H    -4.514000000    -1.819000000    -4.102000000
H    -4.140000000    -0.188000000    -4.619000000
C    -4.027000000    -0.532000000    -2.466000000
C    -3.972000000     0.854000000    -2.120000000
C    -4.314000000     1.198000000    -0.837000000
H    -4.151000000     2.242000000    -0.584000000
C    -4.765000000     0.317000000     0.113000000
O    -4.771000000     0.783000000     1.405000000
C    -3.670000000     0.514000000     2.317000000
H    -2.771000000     0.486000000     1.683000000
C    -3.493000000     1.664000000     3.206000000
C    -2.785000000     1.567000000     4.378000000
H    -2.478000000     0.584000000     4.725000000
C    -3.771000000     2.952000000     2.713000000
H    -4.177000000     3.098000000     1.716000000
C    -3.554000000     4.111000000     3.546000000
O    -3.763000000     5.374000000     3.040000000
C    -3.098000000     3.908000000     4.841000000
H    -3.107000000     4.755000000     5.522000000
C    -2.668000000     2.633000000     5.231000000
O    -2.185000000     2.493000000     6.545000000
C    -1.326000000     1.451000000     6.938000000
C    -0.119000000     1.281000000     6.273000000
H     0.200000000     1.904000000     5.441000000
C    -1.706000000     0.553000000     7.980000000
H    -2.703000000     0.668000000     8.399000000
C    -0.874000000    -0.502000000     8.314000000
H    -1.107000000    -1.167000000     9.142000000
C     0.320000000    -0.653000000     7.638000000
H     1.024000000    -1.401000000     7.993000000
C     0.711000000     0.225000000     6.599000000
O     1.962000000     0.061000000     6.027000000
C     2.358000000    -0.860000000     5.119000000
C     3.701000000    -1.104000000     4.908000000
H     4.430000000    -0.621000000     5.554000000
C     4.137000000    -2.010000000     3.951000000
O     5.473000000    -2.049000000     3.721000000
C     5.985000000    -2.154000000     2.406000000
C     6.157000000    -1.107000000     1.549000000
H     5.775000000    -0.108000000     1.741000000
C     6.397000000    -3.431000000     2.072000000
H     6.302000000    -4.248000000     2.782000000
C     6.798000000    -3.667000000     0.763000000
H     6.939000000    -4.641000000     0.302000000
C     6.954000000    -2.664000000    -0.121000000
H     7.192000000    -2.885000000    -1.159000000
C     6.593000000    -1.372000000     0.238000000
O     6.589000000    -0.403000000    -0.737000000
C     5.711000000    -0.449000000    -1.830000000
C     5.888000000     0.536000000    -2.795000000
H     6.675000000     1.265000000    -2.619000000
C     4.931000000     0.736000000    -3.784000000
O     5.141000000     1.690000000    -4.722000000
C     4.235000000     2.445000000    -5.354000000
C     3.386000000     3.247000000    -4.671000000
H     3.501000000     3.184000000    -3.592000000
C     4.145000000     2.473000000    -6.750000000
H     4.892000000     1.951000000    -7.344000000
C     3.200000000     3.312000000    -7.376000000
H     3.187000000     3.426000000    -8.457000000
C     2.488000000     4.186000000    -6.628000000
H     1.875000000     4.905000000    -7.165000000
C     2.524000000     4.099000000    -5.273000000
O     1.680000000     4.881000000    -4.475000000
C     0.664000000     4.443000000    -3.666000000
C     0.337000000     5.295000000    -2.635000000
H     0.823000000     6.258000000    -2.500000000
C    -0.791000000     4.972000000    -1.861000000
O    -1.034000000     5.790000000    -0.848000000
C    -2.266000000     5.852000000    -0.280000000
C    -3.405000000     6.231000000    -1.030000000
H    -3.283000000     6.597000000    -2.046000000
C    -4.664000000     6.259000000    -0.399000000
H    -5.587000000     6.445000000    -0.942000000
C    -4.735000000     5.979000000     0.935000000
H    -5.713000000     5.954000000     1.408000000
C    -3.587000000     5.714000000     1.713000000
C    -2.362000000     5.717000000     1.093000000
H    -1.464000000     5.560000000     1.685000000
O     0.914000000     5.766000000     8.824000000
H     1.051000000     5.451000000     9.717000000
H     1.738000000     5.578000000     8.375000000
O     4.558000000     2.786000000    -0.932000000
H     3.910000000     3.392000000    -0.572000000
H     4.055000000     2.005000000    -1.161000000
O     5.438000000     1.401000000     3.615000000
H     5.759000000     1.000000000     4.423000000
H     4.591000000     1.778000000     3.855000000
O     4.200000000     2.467000000     5.888000000
H     3.553000000     2.898000000     5.330000000
H     4.726000000     3.184000000     6.243000000
O     1.634000000     2.483000000     9.074000000
H     1.734000000     2.646000000     8.136000000
H     1.773000000     3.338000000     9.481000000
O     6.866000000     2.355000000     1.489000000
H     6.161000000     2.159000000     2.107000000
H     6.419000000     2.510000000     0.657000000
O    -0.182000000     8.405000000     3.461000000
H     0.668000000     8.304000000     3.032000000
H    -0.774000000     8.673000000     2.759000000
O     4.694000000     0.615000000     7.782000000
H     5.618000000     0.762000000     7.984000000
H     4.490000000     1.265000000     7.109000000
O     4.282000000     7.965000000     5.964000000
H     3.805000000     7.327000000     5.435000000
H     3.928000000     8.813000000     5.695000000
O     2.979000000     4.782000000    -0.084000000
H     2.549000000     5.617000000    -0.267000000
H     3.218000000     4.833000000     0.841000000
O     2.423000000     8.248000000     2.822000000
H     2.966000000     8.403000000     2.048000000
H     2.761000000     8.860000000     3.477000000
O    -0.369000000     6.227000000     5.139000000
H    -0.020000000     5.491000000     4.636000000
H    -0.669000000     6.849000000     4.476000000
O     1.341000000     7.094000000    -0.161000000
H     0.443000000     6.798000000    -0.308000000
H     1.249000000     7.883000000     0.374000000
O     5.526000000     5.843000000     1.033000000
H     5.130000000     5.679000000     1.888000000
H     6.446000000     5.602000000     1.145000000
O     2.935000000     4.849000000     7.531000000
H     2.745000000     5.327000000     6.724000000
H     3.889000000     4.771000000     7.545000000
O     4.768000000     4.877000000     3.738000000
H     4.077000000     4.278000000     3.457000000
H     4.365000000     5.397000000     4.434000000
O     1.510000000     2.374000000    -0.975000000
H     0.882000000     2.095000000    -0.308000000
H     1.701000000     3.286000000    -0.758000000
O     7.465000000     4.284000000     4.541000000
H     7.289000000     3.385000000     4.263000000
H     6.662000000     4.761000000     4.331000000
O     2.624000000     5.915000000     5.098000000
H     2.265000000     5.075000000     4.813000000
H     2.229000000     6.557000000     4.508000000
