201
-1232.65995
C     2.842000000    -2.383000000     3.929000000
H     3.258000000    -2.965000000     3.111000000
C     1.490000000    -2.363000000     4.077000000
C     0.950000000    -1.664000000     5.127000000
H    -0.129000000    -1.591000000     5.241000000
C     0.541000000    -3.046000000     3.044000000
O     1.098000000    -4.239000000     2.480000000
H     0.360000000    -2.403000000     2.170000000
O    -0.660000000    -3.410000000     3.682000000
C    -1.801000000    -3.136000000     2.923000000
C    -2.398000000    -1.915000000     3.066000000
H    -1.913000000    -1.145000000     3.661000000
C    -3.419000000    -1.469000000     2.257000000
O    -3.879000000    -0.241000000     2.415000000
C    -3.916000000    -2.320000000     1.291000000
C    -5.046000000    -1.847000000     0.329000000
H    -5.612000000    -2.635000000    -0.173000000
C    -4.561000000    -0.895000000    -0.727000000
C    -4.256000000    -1.432000000    -2.035000000
H    -4.508000000    -2.475000000    -2.211000000
H    -5.735000000    -1.262000000     0.941000000
C    -3.347000000    -3.665000000     1.154000000
H    -3.684000000    -4.385000000     0.413000000
C    -2.196000000    -3.994000000     1.903000000
C    -1.403000000    -5.222000000     1.553000000
H    -2.001000000    -6.027000000     1.122000000
H    -1.055000000    -5.619000000     2.509000000
C    -0.240000000    -4.906000000     0.629000000
C    -0.450000000    -4.911000000    -0.753000000
H    -1.437000000    -5.113000000    -1.162000000
C     1.030000000    -4.492000000     1.113000000
C     2.062000000    -4.157000000     0.235000000
H     3.039000000    -3.818000000     0.572000000
C     1.775000000    -4.151000000    -1.123000000
O     2.687000000    -3.711000000    -2.009000000
C     2.559000000    -2.402000000    -2.698000000
C     3.773000000    -1.547000000    -2.481000000
C     4.155000000    -0.721000000    -3.539000000
H     3.623000000    -0.824000000    -4.481000000
C     4.422000000    -1.484000000    -1.277000000
H     4.048000000    -2.051000000    -0.429000000
O     2.088000000    -2.505000000    -4.059000000
H     1.842000000    -1.740000000    -2.191000000
C     0.525000000    -4.526000000    -1.658000000
C     0.257000000    -4.526000000    -3.199000000
H    -0.426000000    -5.328000000    -3.489000000
H     1.236000000    -4.749000000    -3.628000000
C    -0.176000000    -3.151000000    -3.776000000
C    -1.528000000    -2.864000000    -4.009000000
H    -2.241000000    -3.639000000    -3.738000000
C     0.782000000    -2.261000000    -4.225000000
C     0.404000000    -1.016000000    -4.707000000
H     1.191000000    -0.315000000    -4.971000000
C    -0.940000000    -0.666000000    -4.724000000
O    -1.378000000     0.652000000    -4.929000000
C    -1.667000000     1.419000000    -3.769000000
C    -1.125000000     2.854000000    -3.763000000
C     0.252000000     2.947000000    -3.928000000
H     0.876000000     2.088000000    -4.159000000
C    -1.884000000     3.935000000    -3.226000000
H    -2.947000000     3.815000000    -3.030000000
O    -3.076000000     1.630000000    -3.784000000
H    -1.364000000     0.903000000    -2.846000000
C    -1.923000000    -1.623000000    -4.430000000
C    -3.428000000    -1.253000000    -4.415000000
H    -4.063000000    -2.141000000    -4.387000000
H    -3.768000000    -0.699000000    -5.293000000
C    -3.826000000    -0.610000000    -3.098000000
C    -3.757000000     0.808000000    -2.935000000
C    -4.121000000     1.291000000    -1.676000000
H    -4.000000000     2.354000000    -1.481000000
C    -4.413000000     0.460000000    -0.621000000
O    -4.573000000     0.970000000     0.609000000
C    -3.448000000     0.815000000     1.511000000
H    -2.556000000     0.467000000     0.969000000
C    -3.113000000     2.056000000     2.326000000
C    -2.298000000     1.943000000     3.494000000
H    -1.874000000     1.044000000     3.934000000
C    -3.404000000     3.299000000     1.852000000
H    -3.915000000     3.366000000     0.895000000
C    -2.964000000     4.448000000     2.525000000
O    -2.970000000     5.752000000     2.007000000
C    -2.311000000     4.341000000     3.754000000
H    -2.008000000     5.240000000     4.283000000
C    -1.949000000     3.065000000     4.267000000
O    -1.405000000     2.986000000     5.523000000
C    -1.366000000     1.930000000     6.356000000
C    -0.114000000     1.274000000     6.451000000
H     0.636000000     1.695000000     5.786000000
C    -2.443000000     1.583000000     7.214000000
H    -3.417000000     2.051000000     7.094000000
C    -2.184000000     0.550000000     8.182000000
H    -3.014000000     0.187000000     8.784000000
C    -0.952000000    -0.075000000     8.242000000
H    -0.910000000    -0.792000000     9.058000000
C     0.008000000     0.171000000     7.279000000
O     1.188000000    -0.566000000     7.202000000
C     1.697000000    -0.985000000     6.058000000
C     3.040000000    -1.162000000     5.915000000
H     3.539000000    -0.720000000     6.774000000
C     3.706000000    -1.760000000     4.840000000
O     5.106000000    -1.853000000     4.741000000
C     5.657000000    -2.072000000     3.527000000
C     5.578000000    -1.244000000     2.418000000
H     5.038000000    -0.302000000     2.462000000
C     6.246000000    -3.293000000     3.322000000
H     6.253000000    -3.991000000     4.156000000
C     6.693000000    -3.782000000     2.117000000
H     7.095000000    -4.791000000     2.076000000
C     6.598000000    -2.922000000     1.005000000
H     7.124000000    -3.160000000     0.084000000
C     6.167000000    -1.667000000     1.200000000
O     6.214000000    -0.709000000     0.141000000
C     5.646000000    -0.774000000    -1.104000000
C     5.978000000     0.044000000    -2.168000000
H     6.777000000     0.752000000    -1.966000000
C     5.275000000     0.064000000    -3.378000000
O     5.654000000     0.907000000    -4.363000000
C     4.705000000     1.729000000    -4.900000000
C     3.972000000     2.668000000    -4.117000000
H     4.051000000     2.629000000    -3.034000000
C     4.437000000     1.700000000    -6.231000000
H     4.994000000     0.959000000    -6.799000000
C     3.596000000     2.538000000    -6.923000000
H     3.543000000     2.476000000    -8.007000000
C     2.834000000     3.453000000    -6.144000000
H     2.002000000     4.001000000    -6.579000000
C     3.042000000     3.542000000    -4.772000000
O     2.277000000     4.390000000    -3.955000000
C     0.921000000     4.223000000    -3.776000000
C     0.141000000     5.318000000    -3.361000000
H     0.696000000     6.251000000    -3.309000000
C    -1.206000000     5.171000000    -2.999000000
O    -1.933000000     6.328000000    -2.676000000
C    -2.824000000     6.311000000    -1.559000000
C    -4.104000000     6.845000000    -1.752000000
H    -4.294000000     7.352000000    -2.695000000
C    -5.061000000     6.854000000    -0.723000000
H    -6.078000000     7.160000000    -0.952000000
C    -4.617000000     6.325000000     0.504000000
H    -5.270000000     6.319000000     1.373000000
C    -3.323000000     5.911000000     0.693000000
C    -2.397000000     5.941000000    -0.323000000
H    -1.336000000     5.754000000    -0.176000000
O     0.373000000     5.144000000     7.742000000
H     1.112000000     5.634000000     8.101000000
H     0.761000000     4.579000000     7.074000000
O     5.053000000     7.334000000     1.079000000
H     4.934000000     6.425000000     0.803000000
H     4.228000000     7.566000000     1.504000000
O     5.375000000     4.642000000     0.528000000
H     4.552000000     4.170000000     0.405000000
H     5.786000000     4.637000000    -0.336000000
O     4.325000000     2.162000000     3.550000000
H     4.932000000     2.902000000     3.565000000
H     3.457000000     2.564000000     3.589000000
O     2.280000000     3.860000000     6.219000000
H     2.109000000     3.573000000     5.322000000
H     3.234000000     3.880000000     6.286000000
O     6.652000000     2.477000000     2.009000000
H     5.740000000     2.202000000     1.908000000
H     6.683000000     3.350000000     1.618000000
O    -0.494000000     8.433000000     0.739000000
H    -1.168000000     9.023000000     1.076000000
H    -0.721000000     8.312000000    -0.183000000
O     4.262000000     7.353000000     4.666000000
H     3.466000000     7.073000000     5.118000000
H     4.380000000     8.265000000     4.932000000
O     2.222000000     9.929000000     2.761000000
H     3.040000000    10.080000000     2.288000000
H     2.054000000     8.993000000     2.656000000
O    -0.149000000     7.425000000     3.172000000
H    -0.115000000     6.518000000     2.866000000
H    -0.210000000     7.945000000     2.371000000
O     2.312000000     4.906000000    -0.546000000
H     1.937000000     5.433000000    -1.251000000
H     2.161000000     5.422000000     0.246000000
O    -1.191000000     8.597000000     5.241000000
H    -1.740000000     8.100000000     5.848000000
H    -0.824000000     7.937000000     4.654000000
O     1.835000000     6.784000000     5.539000000
H     1.455000000     6.867000000     4.664000000
H     1.814000000     5.844000000     5.721000000
O     4.385000000     4.906000000     4.164000000
H     3.539000000     4.631000000     3.811000000
H     4.311000000     5.856000000     4.250000000
O     3.324000000     2.410000000    -0.213000000
H     2.633000000     2.067000000     0.354000000
H     2.959000000     3.218000000    -0.574000000
O     1.134000000     9.316000000     6.815000000
H     0.207000000     9.541000000     6.898000000
H     1.162000000     8.677000000     6.103000000
O     5.889000000     4.189000000     6.332000000
H     5.363000000     4.664000000     5.689000000
H     6.736000000     4.064000000     5.902000000
O     0.802000000     2.357000000     9.395000000
H     0.100000000     2.989000000     9.549000000
H     1.054000000     2.495000000     8.482000000
O     2.112000000     6.975000000     1.451000000
H     1.581000000     6.369000000     1.967000000
H     1.477000000     7.464000000     0.927000000
