201
-1242.03433
C     3.717000000    -2.674000000     2.677000000
H     4.024000000    -3.576000000     2.154000000
C     2.418000000    -2.310000000     2.858000000
C     2.056000000    -1.133000000     3.499000000
H     1.024000000    -0.812000000     3.615000000
C     1.242000000    -3.075000000     2.310000000
O     1.601000000    -4.507000000     2.044000000
H     0.910000000    -2.631000000     1.360000000
O     0.160000000    -3.120000000     3.296000000
C    -1.174000000    -3.058000000     2.846000000
C    -1.822000000    -1.920000000     3.277000000
H    -1.438000000    -1.271000000     4.059000000
C    -3.089000000    -1.543000000     2.721000000
O    -3.687000000    -0.436000000     3.089000000
C    -3.721000000    -2.517000000     1.903000000
C    -5.018000000    -2.204000000     1.197000000
H    -5.454000000    -3.146000000     0.857000000
C    -4.755000000    -1.348000000     0.037000000
C    -4.533000000    -1.795000000    -1.278000000
H    -4.575000000    -2.866000000    -1.462000000
H    -5.689000000    -1.753000000     1.930000000
C    -3.097000000    -3.725000000     1.618000000
H    -3.624000000    -4.405000000     0.953000000
C    -1.732000000    -3.972000000     1.957000000
C    -1.136000000    -5.281000000     1.501000000
H    -1.889000000    -6.027000000     1.239000000
H    -0.645000000    -5.637000000     2.410000000
C    -0.085000000    -5.095000000     0.433000000
C    -0.420000000    -5.076000000    -0.929000000
H    -1.468000000    -5.185000000    -1.195000000
C     1.278000000    -4.823000000     0.762000000
C     2.193000000    -4.386000000    -0.204000000
H     3.108000000    -3.944000000     0.183000000
C     1.787000000    -4.362000000    -1.522000000
O     2.626000000    -3.674000000    -2.367000000
C     2.393000000    -2.242000000    -2.572000000
C     3.619000000    -1.369000000    -2.578000000
C     3.636000000    -0.137000000    -3.220000000
H     2.737000000     0.204000000    -3.727000000
C     4.855000000    -1.933000000    -2.092000000
H     4.883000000    -2.878000000    -1.555000000
O     1.736000000    -2.175000000    -3.832000000
H     1.725000000    -1.846000000    -1.793000000
C     0.496000000    -4.677000000    -1.924000000
C     0.116000000    -4.521000000    -3.425000000
H    -0.622000000    -5.309000000    -3.587000000
H     0.858000000    -4.725000000    -4.201000000
C    -0.493000000    -3.165000000    -3.680000000
C    -1.875000000    -2.851000000    -3.621000000
H    -2.577000000    -3.656000000    -3.421000000
C     0.373000000    -2.060000000    -3.986000000
C    -0.100000000    -0.801000000    -4.226000000
H     0.489000000     0.088000000    -4.439000000
C    -1.459000000    -0.553000000    -4.188000000
O    -1.963000000     0.721000000    -4.232000000
C    -2.487000000     1.460000000    -3.085000000
C    -1.872000000     2.908000000    -2.827000000
C    -0.494000000     3.103000000    -2.879000000
H     0.160000000     2.297000000    -3.203000000
C    -2.740000000     3.929000000    -2.398000000
H    -3.819000000     3.800000000    -2.372000000
O    -3.896000000     1.437000000    -2.983000000
H    -2.209000000     0.802000000    -2.248000000
C    -2.333000000    -1.576000000    -3.796000000
C    -3.843000000    -1.374000000    -3.767000000
H    -4.359000000    -2.299000000    -4.032000000
H    -4.246000000    -0.611000000    -4.437000000
C    -4.280000000    -0.889000000    -2.372000000
C    -4.329000000     0.520000000    -2.076000000
C    -4.612000000     0.947000000    -0.798000000
H    -4.554000000     2.001000000    -0.539000000
C    -4.804000000     0.056000000     0.237000000
O    -4.852000000     0.736000000     1.490000000
C    -3.660000000     0.687000000     2.244000000
H    -2.771000000     0.543000000     1.613000000
C    -3.425000000     1.945000000     2.976000000
C    -2.553000000     2.041000000     4.095000000
H    -2.034000000     1.166000000     4.477000000
C    -4.068000000     3.048000000     2.548000000
H    -4.772000000     2.999000000     1.722000000
C    -3.761000000     4.289000000     3.085000000
O    -4.446000000     5.358000000     2.630000000
C    -2.819000000     4.366000000     4.122000000
H    -2.662000000     5.298000000     4.661000000
C    -2.228000000     3.271000000     4.620000000
O    -1.353000000     3.345000000     5.651000000
C    -0.421000000     2.402000000     5.911000000
C     0.633000000     2.189000000     5.027000000
H     0.711000000     2.796000000     4.130000000
C    -0.525000000     1.666000000     7.063000000
H    -1.371000000     1.949000000     7.684000000
C     0.383000000     0.662000000     7.342000000
H     0.355000000     0.044000000     8.236000000
C     1.439000000     0.415000000     6.454000000
H     2.065000000    -0.418000000     6.761000000
C     1.570000000     1.189000000     5.293000000
O     2.701000000     1.016000000     4.482000000
C     3.053000000    -0.202000000     3.880000000
C     4.372000000    -0.677000000     3.848000000
H     5.162000000    -0.043000000     4.242000000
C     4.711000000    -1.842000000     3.233000000
O     6.034000000    -2.258000000     3.032000000
C     6.511000000    -2.735000000     1.862000000
C     6.361000000    -2.033000000     0.609000000
H     5.822000000    -1.090000000     0.664000000
C     7.516000000    -3.713000000     1.921000000
H     7.805000000    -4.189000000     2.854000000
C     8.241000000    -4.178000000     0.796000000
H     9.006000000    -4.949000000     0.760000000
C     8.039000000    -3.509000000    -0.414000000
H     8.547000000    -3.769000000    -1.339000000
C     7.133000000    -2.459000000    -0.465000000
O     7.203000000    -1.722000000    -1.615000000
C     6.035000000    -1.234000000    -2.130000000
C     6.041000000     0.020000000    -2.690000000
H     6.906000000     0.677000000    -2.741000000
C     4.867000000     0.528000000    -3.269000000
O     5.010000000     1.763000000    -3.869000000
C     3.978000000     2.668000000    -4.157000000
C     3.206000000     3.279000000    -3.136000000
H     3.477000000     3.258000000    -2.083000000
C     3.694000000     2.903000000    -5.494000000
H     4.297000000     2.394000000    -6.241000000
C     2.620000000     3.717000000    -5.878000000
H     2.493000000     3.969000000    -6.928000000
C     1.868000000     4.300000000    -4.843000000
H     1.052000000     4.955000000    -5.135000000
C     2.164000000     4.098000000    -3.502000000
O     1.423000000     4.610000000    -2.478000000
C     0.051000000     4.355000000    -2.453000000
C    -0.848000000     5.292000000    -2.010000000
H    -0.538000000     6.328000000    -1.906000000
C    -2.212000000     5.117000000    -2.153000000
O    -3.071000000     6.159000000    -2.037000000
C    -4.069000000     5.986000000    -0.996000000
C    -5.436000000     6.149000000    -1.353000000
H    -5.811000000     6.515000000    -2.305000000
C    -6.401000000     5.873000000    -0.361000000
H    -7.457000000     5.977000000    -0.598000000
C    -6.083000000     5.525000000     0.905000000
H    -6.857000000     5.175000000     1.583000000
C    -4.754000000     5.521000000     1.302000000
C    -3.755000000     5.661000000     0.321000000
H    -2.700000000     5.540000000     0.557000000
O     2.314000000     4.873000000     5.097000000
H     2.743000000     4.018000000     5.123000000
H     1.860000000     4.888000000     4.255000000
O     6.225000000     2.374000000     0.085000000
H     5.549000000     1.844000000    -0.337000000
H     5.953000000     3.278000000    -0.071000000
O     1.605000000     5.148000000     7.942000000
H     1.945000000     5.311000000     7.062000000
H     2.292000000     5.466000000     8.527000000
O     7.730000000     6.947000000     1.888000000
H     6.915000000     6.862000000     1.393000000
H     8.359000000     7.294000000     1.255000000
O    -1.545000000     8.946000000     2.054000000
H    -1.055000000     8.275000000     2.530000000
H    -2.425000000     8.911000000     2.430000000
O     3.989000000     7.034000000     2.484000000
H     3.490000000     6.340000000     2.054000000
H     4.447000000     7.478000000     1.770000000
O     5.532000000     7.515000000     0.298000000
H     5.716000000     8.024000000    -0.492000000
H     4.897000000     6.858000000     0.016000000
O     7.069000000     2.308000000     3.194000000
H     6.270000000     2.723000000     3.521000000
H     7.223000000     2.721000000     2.344000000
O     6.324000000     4.171000000     6.279000000
H     7.053000000     4.784000000     6.186000000
H     5.729000000     4.395000000     5.563000000
O     3.474000000     5.934000000    -0.228000000
H     2.666000000     6.443000000    -0.289000000
H     3.299000000     5.289000000     0.457000000
O     6.600000000     7.736000000     4.804000000
H     6.685000000     8.274000000     4.016000000
H     5.658000000     7.596000000     4.897000000
O     1.119000000     7.491000000     1.300000000
H     1.069000000     6.656000000     1.765000000
H     1.472000000     8.104000000     1.945000000
O     1.700000000     8.769000000     3.710000000
H     0.886000000     8.874000000     4.203000000
H     2.330000000     8.446000000     4.353000000
O     5.082000000     4.527000000     3.555000000
H     4.428000000     4.307000000     2.891000000
H     5.285000000     5.448000000     3.395000000
O     4.482000000     6.709000000    -2.946000000
H     4.933000000     7.478000000    -2.599000000
H     3.939000000     6.402000000    -2.220000000
O     0.667000000     8.403000000    -1.332000000
H     0.956000000     8.151000000    -0.455000000
H     0.034000000     9.105000000    -1.183000000
O     3.850000000     6.947000000     5.210000000
H     4.045000000     7.001000000     4.274000000
H     3.328000000     6.150000000     5.300000000
O    -0.842000000     6.653000000     3.766000000
H    -0.212000000     6.091000000     3.314000000
H    -0.481000000     6.756000000     4.647000000
O    -0.324000000     7.317000000     6.204000000
H     0.496000000     7.581000000     6.621000000
H    -0.695000000     6.664000000     6.797000000
