201
-1229.48116
C     3.814000000    -2.753000000     2.956000000
H     4.214000000    -3.379000000     2.162000000
C     2.437000000    -2.598000000     3.206000000
C     2.048000000    -1.856000000     4.357000000
H     0.975000000    -1.771000000     4.513000000
C     1.421000000    -3.267000000     2.302000000
O     1.896000000    -4.390000000     1.608000000
H     1.078000000    -2.478000000     1.617000000
O     0.252000000    -3.688000000     3.115000000
C    -0.988000000    -3.481000000     2.544000000
C    -1.752000000    -2.427000000     3.065000000
H    -1.330000000    -1.763000000     3.815000000
C    -2.972000000    -2.150000000     2.414000000
O    -3.621000000    -0.981000000     2.852000000
C    -3.422000000    -2.899000000     1.246000000
C    -4.796000000    -2.647000000     0.629000000
H    -5.190000000    -3.555000000     0.168000000
C    -4.655000000    -1.590000000    -0.401000000
C    -4.359000000    -1.958000000    -1.664000000
H    -4.265000000    -3.031000000    -1.810000000
H    -5.457000000    -2.369000000     1.452000000
C    -2.660000000    -4.006000000     0.876000000
H    -2.935000000    -4.693000000     0.080000000
C    -1.423000000    -4.244000000     1.444000000
C    -0.689000000    -5.501000000     0.949000000
H    -1.344000000    -6.307000000     0.613000000
H    -0.182000000    -5.871000000     1.842000000
C     0.357000000    -5.103000000    -0.068000000
C    -0.018000000    -5.020000000    -1.407000000
H    -1.050000000    -5.186000000    -1.706000000
C     1.633000000    -4.723000000     0.297000000
C     2.574000000    -4.222000000    -0.595000000
H     3.475000000    -3.757000000    -0.204000000
C     2.184000000    -4.080000000    -1.925000000
O     2.978000000    -3.258000000    -2.628000000
C     2.523000000    -1.910000000    -2.672000000
C     3.633000000    -0.897000000    -2.312000000
C     3.447000000     0.512000000    -2.510000000
H     2.462000000     0.951000000    -2.644000000
C     4.909000000    -1.328000000    -1.939000000
H     5.195000000    -2.377000000    -1.920000000
O     1.871000000    -1.577000000    -3.914000000
H     1.870000000    -1.679000000    -1.818000000
C     0.901000000    -4.472000000    -2.357000000
C     0.404000000    -4.137000000    -3.752000000
H    -0.305000000    -4.925000000    -4.015000000
H     1.278000000    -4.207000000    -4.403000000
C    -0.217000000    -2.776000000    -3.962000000
C    -1.591000000    -2.700000000    -3.935000000
H    -2.178000000    -3.609000000    -3.835000000
C     0.501000000    -1.558000000    -4.067000000
C    -0.196000000    -0.338000000    -4.333000000
H     0.292000000     0.630000000    -4.263000000
C    -1.568000000    -0.335000000    -4.449000000
O    -2.240000000     0.856000000    -4.562000000
C    -2.596000000     1.548000000    -3.319000000
C    -2.275000000     2.983000000    -3.267000000
C    -1.084000000     3.514000000    -3.675000000
H    -0.324000000     2.839000000    -4.059000000
C    -3.173000000     3.908000000    -2.687000000
H    -4.155000000     3.599000000    -2.338000000
O    -3.980000000     1.384000000    -3.184000000
H    -1.978000000     1.036000000    -2.567000000
C    -2.254000000    -1.497000000    -4.195000000
C    -3.726000000    -1.459000000    -4.013000000
H    -4.207000000    -2.434000000    -4.117000000
H    -4.123000000    -0.863000000    -4.837000000
C    -4.127000000    -1.004000000    -2.662000000
C    -4.251000000     0.373000000    -2.295000000
C    -4.382000000     0.744000000    -0.962000000
H    -4.308000000     1.798000000    -0.708000000
C    -4.735000000    -0.235000000    -0.087000000
O    -4.886000000     0.233000000     1.244000000
C    -3.632000000     0.107000000     1.947000000
H    -2.886000000    -0.097000000     1.165000000
C    -3.152000000     1.443000000     2.563000000
C    -2.219000000     1.458000000     3.594000000
H    -1.786000000     0.581000000     4.069000000
C    -3.818000000     2.656000000     2.204000000
H    -4.648000000     2.660000000     1.502000000
C    -3.481000000     3.832000000     2.889000000
O    -4.121000000     4.975000000     2.628000000
C    -2.547000000     3.844000000     3.917000000
H    -2.367000000     4.765000000     4.465000000
C    -1.903000000     2.672000000     4.238000000
O    -0.974000000     2.689000000     5.261000000
C    -0.537000000     1.539000000     5.986000000
C     0.778000000     1.143000000     5.852000000
H     1.441000000     1.849000000     5.358000000
C    -1.462000000     0.810000000     6.670000000
H    -2.493000000     1.155000000     6.642000000
C    -1.056000000    -0.421000000     7.160000000
H    -1.766000000    -1.186000000     7.464000000
C     0.273000000    -0.839000000     7.069000000
H     0.665000000    -1.765000000     7.481000000
C     1.232000000     0.033000000     6.478000000
O     2.507000000    -0.356000000     6.308000000
C     2.909000000    -1.146000000     5.187000000
C     4.234000000    -1.135000000     4.821000000
H     4.895000000    -0.586000000     5.487000000
C     4.698000000    -1.902000000     3.737000000
O     6.043000000    -1.917000000     3.619000000
C     6.775000000    -2.020000000     2.443000000
C     6.369000000    -1.552000000     1.240000000
H     5.535000000    -0.855000000     1.220000000
C     8.056000000    -2.602000000     2.567000000
H     8.431000000    -2.936000000     3.530000000
C     8.841000000    -2.790000000     1.470000000
H     9.868000000    -3.146000000     1.480000000
C     8.501000000    -2.255000000     0.279000000
H     9.117000000    -2.230000000    -0.616000000
C     7.267000000    -1.595000000     0.149000000
O     7.075000000    -0.925000000    -1.027000000
C     5.844000000    -0.440000000    -1.465000000
C     5.666000000     0.919000000    -1.707000000
H     6.479000000     1.592000000    -1.445000000
C     4.483000000     1.399000000    -2.223000000
O     4.185000000     2.736000000    -2.233000000
C     3.544000000     3.290000000    -3.332000000
C     2.473000000     4.119000000    -3.075000000
H     2.161000000     4.155000000    -2.034000000
C     4.006000000     3.068000000    -4.628000000
H     4.854000000     2.457000000    -4.927000000
C     3.229000000     3.587000000    -5.697000000
H     3.515000000     3.432000000    -6.735000000
C     2.040000000     4.274000000    -5.431000000
H     1.469000000     4.541000000    -6.316000000
C     1.644000000     4.539000000    -4.140000000
O     0.470000000     5.300000000    -3.947000000
C    -0.766000000     4.871000000    -3.556000000
C    -1.632000000     5.712000000    -2.952000000
H    -1.342000000     6.757000000    -2.879000000
C    -2.863000000     5.237000000    -2.582000000
O    -3.718000000     6.130000000    -1.950000000
C    -4.479000000     5.921000000    -0.861000000
C    -5.826000000     6.246000000    -0.901000000
H    -6.358000000     6.563000000    -1.795000000
C    -6.617000000     6.196000000     0.239000000
H    -7.680000000     6.422000000     0.207000000
C    -6.018000000     5.741000000     1.347000000
H    -6.707000000     5.526000000     2.160000000
C    -4.692000000     5.312000000     1.413000000
C    -3.888000000     5.551000000     0.329000000
H    -2.822000000     5.343000000     0.361000000
O     1.581000000     4.172000000     6.715000000
H     1.864000000     3.258000000     6.751000000
H     2.042000000     4.536000000     5.959000000
O     2.937000000     8.222000000     6.630000000
H     3.479000000     7.464000000     6.850000000
H     2.103000000     7.846000000     6.347000000
O     2.460000000     9.885000000     2.378000000
H     2.293000000     9.028000000     1.985000000
H     1.593000000    10.208000000     2.625000000
O     7.745000000     4.527000000     3.842000000
H     8.270000000     4.541000000     3.042000000
H     6.907000000     4.911000000     3.585000000
O     3.947000000     2.457000000     5.707000000
H     3.424000000     2.913000000     5.047000000
H     4.630000000     2.011000000     5.206000000
O     1.741000000     6.851000000     1.048000000
H     0.996000000     7.309000000     0.660000000
H     1.354000000     6.290000000     1.720000000
O     6.228000000     1.521000000     4.510000000
H     6.864000000     0.808000000     4.459000000
H     6.755000000     2.318000000     4.442000000
O     3.550000000     7.395000000    -0.743000000
H     2.906000000     7.834000000    -1.299000000
H     3.049000000     7.099000000     0.017000000
O    -2.953000000     8.397000000     0.804000000
H    -2.326000000     7.808000000     1.222000000
H    -3.735000000     8.343000000     1.353000000
O     5.324000000     3.697000000     2.186000000
H     5.124000000     4.494000000     1.695000000
H     4.700000000     3.701000000     2.912000000
O     4.552000000     6.379000000     2.164000000
H     3.599000000     6.423000000     2.093000000
H     4.713000000     6.116000000     3.070000000
O     0.763000000     6.923000000     5.223000000
H     0.924000000     6.189000000     4.630000000
H    -0.120000000     7.220000000     5.002000000
O     4.496000000     5.127000000     4.377000000
H     3.660000000     4.666000000     4.445000000
H     4.884000000     5.049000000     5.249000000
O    -1.446000000     4.553000000     7.344000000
H    -0.634000000     4.460000000     6.847000000
H    -1.182000000     4.444000000     8.258000000
O     4.486000000     5.795000000     7.081000000
H     5.395000000     5.998000000     7.301000000
H     4.137000000     5.378000000     7.869000000
O     3.178000000     1.566000000     8.427000000
H     3.116000000     2.057000000     7.608000000
H     4.024000000     1.819000000     8.795000000
O     1.779000000     6.218000000     8.716000000
H     1.627000000     5.492000000     8.111000000
H     2.663000000     6.070000000     9.050000000
O    -0.771000000     7.527000000     2.814000000
H    -0.193000000     6.778000000     2.965000000
H    -1.474000000     7.420000000     3.455000000
O    -2.032000000     7.528000000     5.503000000
H    -1.640000000     8.115000000     6.150000000
H    -2.702000000     7.049000000     5.989000000
