201
-1257.94910
C     3.505000000    -1.512000000     3.016000000
H     3.766000000    -1.777000000     1.995000000
C     2.309000000    -2.044000000     3.525000000
C     1.720000000    -1.496000000     4.674000000
H     0.874000000    -2.050000000     5.071000000
C     1.576000000    -3.012000000     2.690000000
O     2.338000000    -3.941000000     1.943000000
H     1.052000000    -2.438000000     1.911000000
O     0.527000000    -3.682000000     3.533000000
C    -0.718000000    -3.822000000     2.889000000
C    -1.643000000    -2.900000000     3.314000000
H    -1.531000000    -2.227000000     4.160000000
C    -2.868000000    -2.792000000     2.648000000
O    -3.570000000    -1.733000000     3.060000000
C    -3.182000000    -3.560000000     1.517000000
C    -4.454000000    -3.224000000     0.782000000
H    -4.665000000    -4.169000000     0.277000000
C    -4.363000000    -2.091000000    -0.251000000
C    -4.027000000    -2.427000000    -1.545000000
H    -3.985000000    -3.446000000    -1.921000000
H    -5.288000000    -3.111000000     1.478000000
C    -2.250000000    -4.507000000     1.083000000
H    -2.392000000    -5.064000000     0.161000000
C    -1.010000000    -4.621000000     1.786000000
C     0.005000000    -5.542000000     1.205000000
H    -0.504000000    -6.390000000     0.741000000
H     0.611000000    -5.874000000     2.050000000
C     0.868000000    -4.816000000     0.174000000
C     0.555000000    -4.814000000    -1.195000000
H    -0.331000000    -5.401000000    -1.423000000
C     2.013000000    -4.119000000     0.604000000
C     2.812000000    -3.513000000    -0.312000000
H     3.651000000    -2.912000000     0.030000000
C     2.445000000    -3.536000000    -1.679000000
O     3.200000000    -2.767000000    -2.468000000
C     2.660000000    -1.492000000    -2.940000000
C     3.685000000    -0.348000000    -2.914000000
C     3.497000000     0.798000000    -3.664000000
H     2.560000000     0.832000000    -4.216000000
C     4.832000000    -0.459000000    -2.119000000
H     4.983000000    -1.282000000    -1.424000000
O     2.111000000    -1.611000000    -4.293000000
H     1.805000000    -1.240000000    -2.295000000
C     1.357000000    -4.185000000    -2.131000000
C     0.938000000    -4.209000000    -3.619000000
H     0.353000000    -5.114000000    -3.796000000
H     1.819000000    -4.324000000    -4.255000000
C     0.119000000    -2.982000000    -4.035000000
C    -1.311000000    -3.048000000    -4.058000000
H    -1.815000000    -3.964000000    -3.761000000
C     0.739000000    -1.834000000    -4.384000000
C    -0.027000000    -0.694000000    -4.681000000
H     0.528000000     0.213000000    -4.906000000
C    -1.409000000    -0.644000000    -4.513000000
O    -2.119000000     0.663000000    -4.572000000
C    -2.382000000     1.290000000    -3.265000000
C    -2.127000000     2.742000000    -3.339000000
C    -1.046000000     3.292000000    -4.077000000
H    -0.466000000     2.594000000    -4.675000000
C    -2.871000000     3.615000000    -2.560000000
H    -3.646000000     3.273000000    -1.880000000
O    -3.728000000     0.953000000    -2.951000000
H    -1.656000000     0.990000000    -2.495000000
C    -2.046000000    -1.836000000    -4.202000000
C    -3.519000000    -1.871000000    -3.975000000
H    -3.966000000    -2.805000000    -4.322000000
H    -4.013000000    -1.182000000    -4.664000000
C    -3.770000000    -1.473000000    -2.513000000
C    -3.805000000    -0.130000000    -2.156000000
C    -4.148000000     0.171000000    -0.810000000
H    -4.290000000     1.215000000    -0.545000000
C    -4.455000000    -0.759000000     0.117000000
O    -4.631000000    -0.408000000     1.481000000
C    -3.420000000    -0.532000000     2.283000000
H    -2.465000000    -0.597000000     1.740000000
C    -3.311000000     0.693000000     3.215000000
C    -2.988000000     0.580000000     4.556000000
H    -2.941000000    -0.391000000     5.042000000
C    -3.228000000     1.965000000     2.682000000
H    -3.161000000     2.085000000     1.604000000
C    -3.084000000     3.100000000     3.383000000
O    -2.912000000     4.292000000     2.666000000
C    -3.007000000     2.974000000     4.751000000
H    -2.944000000     3.825000000     5.424000000
C    -2.781000000     1.705000000     5.342000000
O    -2.595000000     1.539000000     6.747000000
C    -1.671000000     0.656000000     7.168000000
C    -0.382000000     0.728000000     6.606000000
H    -0.110000000     1.494000000     5.884000000
C    -2.017000000    -0.288000000     8.122000000
H    -3.076000000    -0.414000000     8.331000000
C    -1.027000000    -1.195000000     8.584000000
H    -1.304000000    -1.954000000     9.311000000
C     0.261000000    -1.113000000     8.042000000
H     1.023000000    -1.821000000     8.358000000
C     0.579000000    -0.221000000     6.998000000
O     1.853000000    -0.071000000     6.520000000
C     2.337000000    -0.463000000     5.333000000
C     3.566000000     0.055000000     4.874000000
H     4.137000000     0.804000000     5.418000000
C     4.159000000    -0.451000000     3.722000000
O     5.322000000     0.092000000     3.273000000
C     6.092000000    -0.305000000     2.175000000
C     6.093000000     0.471000000     1.044000000
H     5.483000000     1.359000000     0.897000000
C     6.877000000    -1.483000000     2.359000000
H     6.741000000    -1.964000000     3.325000000
C     7.609000000    -1.891000000     1.278000000
H     8.100000000    -2.860000000     1.302000000
C     7.747000000    -1.162000000     0.088000000
H     8.292000000    -1.502000000    -0.789000000
C     6.911000000    -0.017000000    -0.036000000
O     6.848000000     0.614000000    -1.326000000
C     5.749000000     0.613000000    -2.171000000
C     5.532000000     1.723000000    -2.966000000
H     6.295000000     2.495000000    -3.016000000
C     4.403000000     1.839000000    -3.718000000
O     4.256000000     3.027000000    -4.434000000
C     3.182000000     3.499000000    -5.205000000
C     2.080000000     4.102000000    -4.631000000
H     1.976000000     4.203000000    -3.554000000
C     3.377000000     3.448000000    -6.623000000
H     4.270000000     3.026000000    -7.077000000
C     2.401000000     3.935000000    -7.478000000
H     2.531000000     3.921000000    -8.558000000
C     1.250000000     4.525000000    -6.908000000
H     0.650000000     5.134000000    -7.580000000
C     1.109000000     4.546000000    -5.487000000
O     0.074000000     5.267000000    -4.966000000
C    -0.840000000     4.638000000    -4.132000000
C    -1.617000000     5.538000000    -3.383000000
H    -1.499000000     6.618000000    -3.345000000
C    -2.581000000     4.984000000    -2.530000000
O    -3.293000000     5.949000000    -1.849000000
C    -3.832000000     5.773000000    -0.555000000
C    -5.149000000     6.149000000    -0.292000000
H    -5.673000000     6.755000000    -1.027000000
C    -5.822000000     5.730000000     0.833000000
H    -6.816000000     6.059000000     1.126000000
C    -5.060000000     5.153000000     1.871000000
H    -5.509000000     4.900000000     2.829000000
C    -3.684000000     4.788000000     1.631000000
C    -3.110000000     5.055000000     0.418000000
H    -2.059000000     4.800000000     0.302000000
O     0.286000000     6.979000000     5.514000000
H     0.863000000     6.456000000     6.071000000
H     0.070000000     6.400000000     4.783000000
O    -0.156000000     5.381000000     3.286000000
H    -0.803000000     4.997000000     2.694000000
H     0.638000000     4.868000000     3.137000000
O     5.745000000     6.373000000     4.895000000
H     6.475000000     6.644000000     4.337000000
H     6.129000000     6.288000000     5.767000000
O     3.306000000     8.217000000     5.319000000
H     2.889000000     7.441000000     4.946000000
H     4.208000000     8.181000000     5.001000000
O     1.014000000     9.092000000     3.350000000
H     0.299000000     9.227000000     3.972000000
H     1.764000000     8.854000000     3.894000000
O     6.835000000     6.453000000     0.170000000
H     6.776000000     6.938000000    -0.653000000
H     6.445000000     5.601000000    -0.027000000
O     0.965000000     7.493000000    -2.369000000
H     1.747000000     7.887000000    -1.983000000
H     1.100000000     7.568000000    -3.314000000
O     6.381000000     3.264000000     4.584000000
H     6.036000000     3.257000000     3.691000000
H     6.727000000     4.148000000     4.700000000
O    -1.547000000     7.741000000     0.226000000
H    -1.146000000     6.968000000    -0.171000000
H    -2.489000000     7.596000000     0.135000000
O     8.269000000     2.669000000     2.269000000
H     7.320000000     2.625000000     2.146000000
H     8.630000000     2.513000000     1.396000000
O     0.026000000     5.753000000    -0.672000000
H     0.817000000     5.300000000    -0.379000000
H     0.331000000     6.352000000    -1.353000000
O     5.020000000     3.555000000     2.242000000
H     4.745000000     3.983000000     1.431000000
H     4.204000000     3.259000000     2.645000000
O     1.383000000     4.184000000     6.020000000
H     1.757000000     4.569000000     5.227000000
H     1.348000000     3.246000000     5.837000000
O     5.154000000     8.365000000     1.902000000
H     4.208000000     8.221000000     1.938000000
H     5.494000000     7.608000000     1.425000000
O     2.866000000     5.746000000     4.315000000
H     2.645000000     5.317000000     3.488000000
H     3.803000000     5.584000000     4.426000000
O     5.016000000     4.143000000    -0.867000000
H     5.390000000     4.603000000    -1.619000000
H     4.138000000     4.512000000    -0.773000000
O     3.141000000     8.431000000    -1.035000000
H     3.306000000     8.048000000    -0.174000000
H     3.996000000     8.749000000    -1.323000000
O    -2.855000000     6.979000000     4.236000000
H    -2.171000000     7.307000000     4.821000000
H    -2.417000000     6.316000000     3.703000000
O     2.667000000     7.349000000     1.547000000
H     1.834000000     7.657000000     1.905000000
H     2.496000000     6.443000000     1.289000000
