201
-1222.02853
C     2.012000000    -2.015000000     4.905000000
H     2.395000000    -2.941000000     4.484000000
C     0.697000000    -1.627000000     4.729000000
C     0.238000000    -0.500000000     5.421000000
H    -0.815000000    -0.232000000     5.468000000
C    -0.160000000    -2.382000000     3.702000000
O     0.330000000    -3.620000000     3.250000000
H    -0.224000000    -1.759000000     2.798000000
O    -1.565000000    -2.464000000     4.098000000
C    -2.525000000    -2.160000000     3.173000000
C    -3.104000000    -0.959000000     3.280000000
H    -2.779000000    -0.228000000     4.016000000
C    -4.052000000    -0.566000000     2.364000000
O    -4.372000000     0.783000000     2.264000000
C    -4.488000000    -1.507000000     1.457000000
C    -5.359000000    -1.176000000     0.296000000
H    -6.006000000    -2.006000000     0.005000000
C    -4.611000000    -0.642000000    -0.943000000
C    -4.145000000    -1.418000000    -1.997000000
H    -4.327000000    -2.490000000    -1.969000000
H    -6.102000000    -0.428000000     0.581000000
C    -3.964000000    -2.839000000     1.420000000
H    -4.295000000    -3.590000000     0.708000000
C    -2.903000000    -3.152000000     2.287000000
C    -2.217000000    -4.539000000     2.138000000
H    -2.939000000    -5.315000000     1.877000000
H    -1.906000000    -4.820000000     3.147000000
C    -0.911000000    -4.501000000     1.354000000
C    -0.822000000    -4.953000000     0.026000000
H    -1.779000000    -5.205000000    -0.422000000
C     0.254000000    -4.080000000     1.940000000
C     1.492000000    -4.199000000     1.289000000
H     2.345000000    -3.690000000     1.730000000
C     1.529000000    -4.543000000    -0.075000000
O     2.747000000    -4.360000000    -0.719000000
C     2.583000000    -3.196000000    -1.646000000
C     3.791000000    -2.241000000    -1.451000000
C     4.419000000    -1.699000000    -2.556000000
H     4.004000000    -1.856000000    -3.549000000
C     4.139000000    -1.861000000    -0.153000000
H     3.631000000    -2.275000000     0.715000000
O     2.375000000    -3.580000000    -3.005000000
H     1.701000000    -2.697000000    -1.217000000
C     0.326000000    -4.993000000    -0.686000000
C     0.156000000    -5.225000000    -2.131000000
H    -0.562000000    -5.951000000    -2.515000000
H     1.153000000    -5.582000000    -2.397000000
C     0.072000000    -3.881000000    -2.886000000
C    -1.246000000    -3.406000000    -3.070000000
H    -2.051000000    -4.018000000    -2.673000000
C     1.105000000    -3.175000000    -3.462000000
C     0.848000000    -2.048000000    -4.196000000
H     1.650000000    -1.469000000    -4.646000000
C    -0.408000000    -1.591000000    -4.407000000
O    -0.672000000    -0.415000000    -5.023000000
C    -1.083000000     0.682000000    -4.152000000
C    -0.323000000     1.969000000    -4.498000000
C     0.872000000     1.956000000    -5.212000000
H     1.123000000     1.021000000    -5.705000000
C    -0.691000000     3.138000000    -3.872000000
H    -1.623000000     3.280000000    -3.330000000
O    -2.499000000     1.042000000    -4.136000000
H    -0.766000000     0.295000000    -3.173000000
C    -1.499000000    -2.266000000    -3.836000000
C    -2.919000000    -1.858000000    -4.134000000
H    -3.493000000    -2.779000000    -4.015000000
H    -2.969000000    -1.523000000    -5.172000000
C    -3.415000000    -0.924000000    -3.089000000
C    -3.356000000     0.433000000    -3.212000000
C    -3.866000000     1.303000000    -2.212000000
H    -3.631000000     2.360000000    -2.300000000
C    -4.438000000     0.769000000    -1.062000000
O    -4.774000000     1.538000000     0.025000000
C    -3.869000000     1.516000000     1.165000000
H    -2.946000000     0.958000000     0.952000000
C    -3.312000000     2.845000000     1.641000000
C    -2.685000000     2.986000000     2.888000000
H    -2.626000000     2.160000000     3.593000000
C    -3.386000000     3.884000000     0.681000000
H    -3.890000000     3.700000000    -0.264000000
C    -2.921000000     5.206000000     1.099000000
O    -3.013000000     6.302000000     0.278000000
C    -2.305000000     5.309000000     2.371000000
H    -1.960000000     6.279000000     2.720000000
C    -2.145000000     4.244000000     3.262000000
O    -1.538000000     4.448000000     4.429000000
C    -1.499000000     3.564000000     5.482000000
C    -0.406000000     2.764000000     5.776000000
H     0.408000000     2.671000000     5.063000000
C    -2.634000000     3.536000000     6.287000000
H    -3.495000000     4.099000000     5.936000000
C    -2.719000000     2.685000000     7.375000000
H    -3.699000000     2.556000000     7.827000000
C    -1.618000000     1.871000000     7.673000000
H    -1.552000000     1.157000000     8.490000000
C    -0.426000000     1.993000000     6.918000000
O     0.540000000     1.108000000     7.188000000
C     1.064000000     0.190000000     6.286000000
C     2.383000000    -0.203000000     6.459000000
H     2.945000000     0.223000000     7.286000000
C     2.874000000    -1.297000000     5.680000000
O     4.112000000    -1.839000000     5.857000000
C     4.954000000    -1.926000000     4.730000000
C     4.923000000    -1.124000000     3.589000000
H     4.437000000    -0.161000000     3.721000000
C     5.623000000    -3.163000000     4.565000000
H     5.579000000    -3.951000000     5.313000000
C     6.424000000    -3.455000000     3.426000000
H     6.960000000    -4.389000000     3.281000000
C     6.461000000    -2.543000000     2.379000000
H     7.057000000    -2.807000000     1.510000000
C     5.709000000    -1.403000000     2.463000000
O     5.551000000    -0.597000000     1.367000000
C     5.233000000    -1.021000000     0.082000000
C     5.693000000    -0.346000000    -1.024000000
H     6.409000000     0.432000000    -0.775000000
C     5.342000000    -0.649000000    -2.357000000
O     5.867000000     0.131000000    -3.382000000
C     5.161000000     0.387000000    -4.505000000
C     4.372000000     1.538000000    -4.608000000
H     4.350000000     2.276000000    -3.810000000
C     5.255000000    -0.432000000    -5.587000000
H     5.887000000    -1.303000000    -5.434000000
C     4.556000000    -0.186000000    -6.737000000
H     4.610000000    -0.854000000    -7.593000000
C     3.689000000     0.949000000    -6.818000000
H     3.215000000     1.234000000    -7.754000000
C     3.667000000     1.840000000    -5.774000000
O     3.003000000     3.002000000    -5.755000000
C     1.662000000     3.036000000    -5.286000000
C     1.211000000     4.236000000    -4.701000000
H     1.785000000     5.159000000    -4.734000000
C     0.089000000     4.312000000    -3.977000000
O    -0.336000000     5.539000000    -3.590000000
C    -1.602000000     5.847000000    -3.058000000
C    -2.635000000     6.055000000    -3.931000000
H    -2.432000000     6.093000000    -4.998000000
C    -3.813000000     6.351000000    -3.342000000
H    -4.642000000     6.729000000    -3.935000000
C    -3.954000000     6.446000000    -1.971000000
H    -4.880000000     6.782000000    -1.510000000
C    -2.919000000     6.207000000    -1.134000000
C    -1.683000000     5.882000000    -1.703000000
H    -0.817000000     5.774000000    -1.056000000
O     2.669000000     4.707000000     5.270000000
H     2.031000000     5.201000000     4.756000000
H     3.022000000     4.061000000     4.658000000
O     0.943000000     5.022000000     3.110000000
H     0.078000000     4.766000000     3.430000000
H     0.952000000     4.741000000     2.195000000
O     5.370000000     7.942000000     3.413000000
H     5.713000000     8.813000000     3.215000000
H     4.471000000     7.958000000     3.084000000
O     6.956000000     3.053000000    -0.580000000
H     6.813000000     3.999000000    -0.552000000
H     6.134000000     2.696000000    -0.915000000
O     7.309000000     2.405000000     2.281000000
H     6.601000000     2.446000000     1.638000000
H     8.080000000     2.153000000     1.773000000
O     1.668000000     7.009000000    -2.419000000
H     0.877000000     7.168000000    -2.935000000
H     1.531000000     6.145000000    -2.031000000
O     4.248000000     4.542000000     1.398000000
H     3.707000000     4.628000000     0.614000000
H     4.139000000     5.375000000     1.857000000
O     2.972000000     6.798000000    -6.549000000
H     2.032000000     6.666000000    -6.674000000
H     3.134000000     6.527000000    -5.646000000
O     6.842000000     7.441000000    -1.793000000
H     6.869000000     7.513000000    -0.838000000
H     5.996000000     7.034000000    -1.978000000
O     4.467000000     2.670000000    -1.292000000
H     3.882000000     3.384000000    -1.545000000
H     4.080000000     2.316000000    -0.491000000
O     1.424000000     7.703000000     0.497000000
H     1.297000000     6.764000000     0.631000000
H     1.273000000     7.835000000    -0.439000000
O     3.125000000     6.887000000     2.448000000
H     2.254000000     6.584000000     2.705000000
H     2.971000000     7.429000000     1.674000000
O     4.806000000     5.676000000    -1.415000000
H     3.871000000     5.470000000    -1.413000000
H     5.051000000     5.688000000    -0.490000000
O     3.839000000     2.848000000     3.472000000
H     3.413000000     2.116000000     3.025000000
H     4.061000000     3.460000000     2.770000000
O     0.090000000     8.372000000    -4.498000000
H    -0.797000000     8.626000000    -4.751000000
H     0.347000000     7.718000000    -5.148000000
O     6.792000000     6.101000000     0.615000000
H     6.640000000     6.569000000     1.435000000
H     7.742000000     6.111000000     0.505000000
O    -0.909000000     8.901000000     1.943000000
H    -0.728000000     8.754000000     2.871000000
H    -0.054000000     8.831000000     1.518000000
O     2.691000000     1.163000000     1.424000000
H     1.791000000     1.259000000     1.112000000
H     3.113000000     0.605000000     0.770000000
O     4.096000000     7.073000000    -3.732000000
H     4.582000000     6.333000000    -3.370000000
H     3.349000000     7.180000000    -3.143000000
