201
-1232.03417
C     2.825000000    -0.114000000     4.829000000
H     3.129000000    -1.119000000     4.547000000
C     1.501000000     0.140000000     4.826000000
C     1.072000000     1.459000000     5.186000000
H     0.011000000     1.691000000     5.150000000
C     0.501000000    -0.780000000     4.192000000
O     1.032000000    -2.153000000     4.387000000
H     0.442000000    -0.591000000     3.110000000
O    -0.781000000    -0.752000000     4.796000000
C    -1.838000000    -0.829000000     3.983000000
C    -2.352000000     0.414000000     3.461000000
H    -1.833000000     1.326000000     3.744000000
C    -3.545000000     0.317000000     2.738000000
O    -4.025000000     1.496000000     2.341000000
C    -4.142000000    -0.891000000     2.399000000
C    -5.346000000    -0.986000000     1.470000000
H    -5.985000000    -1.857000000     1.634000000
C    -4.815000000    -0.869000000     0.036000000
C    -4.500000000    -2.063000000    -0.669000000
H    -4.663000000    -3.058000000    -0.264000000
H    -6.067000000    -0.221000000     1.762000000
C    -3.577000000    -2.080000000     2.915000000
H    -4.168000000    -2.961000000     2.680000000
C    -2.411000000    -2.060000000     3.647000000
C    -1.647000000    -3.279000000     4.148000000
H    -2.351000000    -4.108000000     4.050000000
H    -1.384000000    -3.157000000     5.201000000
C    -0.557000000    -3.587000000     3.194000000
C    -0.772000000    -4.459000000     2.077000000
H    -1.719000000    -4.928000000     1.825000000
C     0.692000000    -3.030000000     3.388000000
C     1.760000000    -3.193000000     2.486000000
H     2.752000000    -2.793000000     2.678000000
C     1.618000000    -4.037000000     1.400000000
O     2.656000000    -4.199000000     0.566000000
C     2.452000000    -3.431000000    -0.574000000
C     3.661000000    -2.651000000    -1.021000000
C     3.952000000    -2.425000000    -2.405000000
H     3.250000000    -2.653000000    -3.202000000
C     4.474000000    -2.125000000    -0.028000000
H     4.306000000    -2.345000000     1.023000000
O     1.896000000    -4.199000000    -1.669000000
H     1.803000000    -2.575000000    -0.334000000
C     0.333000000    -4.644000000     1.227000000
C     0.021000000    -5.465000000     0.063000000
H    -0.744000000    -6.221000000     0.256000000
H     0.821000000    -6.173000000    -0.163000000
C    -0.428000000    -4.666000000    -1.155000000
C    -1.774000000    -4.379000000    -1.361000000
H    -2.565000000    -4.743000000    -0.711000000
C     0.529000000    -4.182000000    -2.032000000
C     0.165000000    -3.426000000    -3.117000000
H     0.946000000    -2.919000000    -3.678000000
C    -1.155000000    -3.143000000    -3.373000000
O    -1.364000000    -2.191000000    -4.261000000
C    -1.740000000    -0.879000000    -3.743000000
C    -1.026000000     0.237000000    -4.448000000
C     0.079000000    -0.025000000    -5.309000000
H     0.358000000    -1.045000000    -5.562000000
C    -1.268000000     1.571000000    -4.150000000
H    -2.049000000     1.833000000    -3.441000000
O    -3.138000000    -0.617000000    -3.710000000
H    -1.323000000    -0.987000000    -2.731000000
C    -2.105000000    -3.636000000    -2.472000000
C    -3.647000000    -3.345000000    -2.665000000
H    -4.255000000    -4.125000000    -2.202000000
H    -3.900000000    -3.216000000    -3.720000000
C    -4.054000000    -1.992000000    -2.000000000
C    -3.790000000    -0.798000000    -2.520000000
C    -4.121000000     0.366000000    -1.899000000
H    -3.906000000     1.324000000    -2.367000000
C    -4.678000000     0.344000000    -0.629000000
O    -4.831000000     1.487000000     0.141000000
C    -3.703000000     1.875000000     0.995000000
H    -2.755000000     1.376000000     0.744000000
C    -3.426000000     3.361000000     0.907000000
C    -2.434000000     3.876000000     1.725000000
H    -1.986000000     3.292000000     2.525000000
C    -3.790000000     4.072000000    -0.190000000
H    -4.386000000     3.678000000    -1.008000000
C    -3.371000000     5.447000000    -0.398000000
O    -3.637000000     6.175000000    -1.543000000
C    -2.505000000     5.965000000     0.531000000
H    -2.079000000     6.947000000     0.345000000
C    -2.042000000     5.172000000     1.580000000
O    -1.215000000     5.773000000     2.511000000
C    -1.108000000     5.371000000     3.836000000
C     0.165000000     4.953000000     4.254000000
H     1.009000000     5.019000000     3.572000000
C    -2.281000000     5.050000000     4.590000000
H    -3.262000000     5.409000000     4.290000000
C    -2.124000000     4.308000000     5.760000000
H    -3.053000000     4.052000000     6.262000000
C    -0.847000000     3.897000000     6.190000000
H    -0.716000000     3.486000000     7.188000000
C     0.265000000     4.225000000     5.449000000
O     1.503000000     3.752000000     5.832000000
C     1.959000000     2.450000000     5.562000000
C     3.258000000     2.276000000     5.388000000
H     3.946000000     3.085000000     5.620000000
C     3.713000000     0.989000000     5.171000000
O     5.149000000     0.718000000     4.948000000
C     5.702000000    -0.239000000     4.144000000
C     5.913000000    -0.004000000     2.784000000
H     5.811000000     0.992000000     2.362000000
C     6.176000000    -1.475000000     4.682000000
H     6.062000000    -1.660000000     5.747000000
C     6.588000000    -2.462000000     3.867000000
H     6.634000000    -3.507000000     4.162000000
C     6.798000000    -2.237000000     2.498000000
H     7.217000000    -3.006000000     1.854000000
C     6.376000000    -0.974000000     1.971000000
O     6.374000000    -0.773000000     0.575000000
C     5.515000000    -1.281000000    -0.405000000
C     5.730000000    -0.913000000    -1.764000000
H     6.511000000    -0.203000000    -2.021000000
C     5.007000000    -1.565000000    -2.746000000
O     5.380000000    -1.272000000    -4.026000000
C     4.692000000    -1.234000000    -5.234000000
C     3.491000000    -0.507000000    -5.303000000
H     3.111000000     0.031000000    -4.438000000
C     5.198000000    -1.816000000    -6.393000000
H     6.072000000    -2.458000000    -6.319000000
C     4.563000000    -1.588000000    -7.663000000
H     4.883000000    -2.176000000    -8.520000000
C     3.450000000    -0.747000000    -7.705000000
H     2.934000000    -0.499000000    -8.629000000
C     2.920000000    -0.214000000    -6.560000000
O     1.842000000     0.733000000    -6.737000000
C     0.841000000     1.005000000    -5.848000000
C     0.549000000     2.282000000    -5.555000000
H     1.159000000     3.137000000    -5.834000000
C    -0.557000000     2.587000000    -4.785000000
O    -0.814000000     3.904000000    -4.443000000
C    -2.077000000     4.284000000    -4.215000000
C    -3.148000000     4.014000000    -5.066000000
H    -3.056000000     3.303000000    -5.884000000
C    -4.402000000     4.502000000    -4.707000000
H    -5.343000000     4.300000000    -5.212000000
C    -4.547000000     5.272000000    -3.531000000
H    -5.535000000     5.679000000    -3.332000000
C    -3.451000000     5.650000000    -2.769000000
C    -2.213000000     5.118000000    -3.121000000
H    -1.324000000     5.297000000    -2.522000000
O     0.268000000     6.731000000    -5.704000000
H    -0.654000000     6.711000000    -5.961000000
H     0.478000000     7.663000000    -5.641000000
O     5.430000000     6.567000000    -2.470000000
H     5.963000000     5.896000000    -2.043000000
H     4.552000000     6.440000000    -2.110000000
O     3.110000000     8.994000000    -1.792000000
H     2.371000000     8.403000000    -1.645000000
H     3.830000000     8.418000000    -2.045000000
O     4.249000000     6.014000000    -6.816000000
H     3.833000000     5.827000000    -7.657000000
H     4.706000000     6.843000000    -6.953000000
O     2.000000000     6.678000000    -3.640000000
H     1.312000000     6.486000000    -4.277000000
H     1.948000000     5.962000000    -3.007000000
O     3.047000000     8.762000000    -5.066000000
H     3.976000000     8.926000000    -4.902000000
H     2.780000000     8.170000000    -4.362000000
O     0.832000000     6.940000000     0.249000000
H     0.866000000     6.134000000    -0.267000000
H     1.745000000     7.217000000     0.320000000
O     6.977000000     5.106000000    -5.213000000
H     7.069000000     5.997000000    -5.550000000
H     6.059000000     4.885000000    -5.366000000
O     5.891000000     1.993000000    -6.303000000
H     5.496000000     2.682000000    -5.768000000
H     6.512000000     1.561000000    -5.716000000
O     4.636000000     4.480000000     3.390000000
H     3.916000000     5.080000000     3.583000000
H     4.434000000     4.136000000     2.519000000
O    -1.133000000     8.216000000    -2.821000000
H    -1.986000000     8.483000000    -3.162000000
H    -0.965000000     7.369000000    -3.234000000
O     5.075000000     2.273000000    -2.268000000
H     4.251000000     2.704000000    -2.497000000
H     5.751000000     2.903000000    -2.516000000
O     4.421000000     8.450000000     0.851000000
H     3.561000000     8.869000000     0.862000000
H     4.313000000     7.693000000     0.275000000
O     5.741000000     4.856000000     0.205000000
H     5.346000000     3.988000000     0.126000000
H     6.676000000     4.685000000     0.317000000
O     4.356000000     3.959000000    -4.988000000
H     3.970000000     4.602000000    -5.582000000
H     3.729000000     3.890000000    -4.268000000
O     5.025000000     1.902000000     0.167000000
H     5.674000000     1.205000000     0.061000000
H     4.813000000     2.169000000    -0.727000000
O     3.539000000     6.224000000    -0.403000000
H     2.897000000     5.560000000    -0.655000000
H     4.334000000     5.727000000    -0.212000000
O     3.287000000     3.326000000     1.379000000
H     4.021000000     2.792000000     1.074000000
H     2.536000000     3.011000000     0.876000000
O     7.036000000     4.313000000    -2.456000000
H     7.942000000     4.213000000    -2.163000000
H     7.102000000     4.430000000    -3.403000000
