201
-1255.58247
C    -5.398000000    -0.285000000    -0.254000000
H    -5.491000000     0.529000000    -0.968000000
C    -4.594000000    -0.202000000     0.899000000
C    -4.404000000    -1.295000000     1.649000000
H    -3.706000000    -1.261000000     2.483000000
C    -3.840000000     1.137000000     1.337000000
O    -4.458000000     2.208000000     0.571000000
H    -2.786000000     1.001000000     1.052000000
O    -3.953000000     1.485000000     2.740000000
C    -2.776000000     1.914000000     3.228000000
C    -2.058000000     0.944000000     3.931000000
H    -2.489000000    -0.049000000     4.028000000
C    -0.794000000     1.245000000     4.379000000
O    -0.055000000     0.255000000     4.934000000
C    -0.251000000     2.527000000     4.195000000
C     1.215000000     2.879000000     4.656000000
H     1.347000000     3.959000000     4.750000000
C     2.173000000     2.446000000     3.549000000
C     2.483000000     3.304000000     2.495000000
H     2.127000000     4.331000000     2.495000000
H     1.377000000     2.353000000     5.599000000
C    -0.988000000     3.496000000     3.471000000
H    -0.409000000     4.400000000     3.302000000
C    -2.314000000     3.239000000     3.002000000
C    -3.014000000     4.287000000     2.133000000
H    -2.710000000     5.277000000     2.478000000
H    -4.088000000     4.350000000     2.326000000
C    -2.713000000     3.957000000     0.692000000
C    -1.583000000     4.551000000     0.076000000
H    -0.993000000     5.257000000     0.653000000
C    -3.541000000     3.092000000    -0.015000000
C    -3.240000000     2.792000000    -1.335000000
H    -3.782000000     2.034000000    -1.895000000
C    -2.213000000     3.434000000    -1.989000000
O    -1.888000000     3.169000000    -3.292000000
C    -0.762000000     2.220000000    -3.547000000
C    -1.124000000     1.105000000    -4.517000000
C    -0.064000000     0.440000000    -5.163000000
H     0.975000000     0.722000000    -5.007000000
C    -2.460000000     0.668000000    -4.767000000
H    -3.218000000     1.229000000    -4.225000000
O     0.425000000     2.988000000    -4.036000000
H    -0.494000000     1.792000000    -2.569000000
C    -1.376000000     4.341000000    -1.308000000
C    -0.359000000     5.131000000    -1.949000000
H    -0.150000000     6.043000000    -1.388000000
H    -0.694000000     5.515000000    -2.915000000
C     0.940000000     4.342000000    -2.039000000
C     1.779000000     4.393000000    -0.880000000
H     1.401000000     4.951000000    -0.027000000
C     1.276000000     3.478000000    -3.077000000
C     2.408000000     2.690000000    -2.990000000
H     2.687000000     2.023000000    -3.801000000
C     3.230000000     2.821000000    -1.824000000
O     4.271000000     1.931000000    -1.621000000
C     4.044000000     0.859000000    -0.670000000
C     4.535000000    -0.453000000    -1.229000000
C     4.405000000    -0.789000000    -2.581000000
H     4.091000000     0.045000000    -3.203000000
C     5.022000000    -1.365000000    -0.249000000
H     5.093000000    -1.073000000     0.795000000
O     4.744000000     1.296000000     0.507000000
H     2.986000000     0.676000000    -0.431000000
C     2.911000000     3.688000000    -0.814000000
C     3.701000000     3.954000000     0.473000000
H     3.635000000     4.987000000     0.822000000
H     4.761000000     3.924000000     0.212000000
C     3.339000000     2.952000000     1.538000000
C     3.962000000     1.695000000     1.547000000
C     3.587000000     0.797000000     2.528000000
H     3.916000000    -0.231000000     2.398000000
C     2.697000000     1.136000000     3.539000000
O     2.271000000     0.298000000     4.558000000
C     1.019000000    -0.337000000     4.220000000
H     0.874000000    -0.218000000     3.136000000
C     1.095000000    -1.874000000     4.380000000
C    -0.081000000    -2.605000000     4.639000000
H    -1.047000000    -2.108000000     4.624000000
C     2.269000000    -2.549000000     4.268000000
H     3.191000000    -2.007000000     4.070000000
C     2.334000000    -3.918000000     4.454000000
O     3.543000000    -4.568000000     4.283000000
C     1.189000000    -4.558000000     4.808000000
H     1.258000000    -5.633000000     4.950000000
C    -0.018000000    -3.951000000     4.870000000
O    -1.134000000    -4.703000000     5.260000000
C    -2.421000000    -4.357000000     4.942000000
C    -2.893000000    -4.316000000     3.621000000
H    -2.370000000    -4.722000000     2.758000000
C    -3.156000000    -3.807000000     5.957000000
H    -2.660000000    -3.645000000     6.911000000
C    -4.400000000    -3.174000000     5.670000000
H    -4.958000000    -2.707000000     6.477000000
C    -4.927000000    -3.156000000     4.373000000
H    -5.930000000    -2.805000000     4.145000000
C    -4.177000000    -3.788000000     3.317000000
O    -4.640000000    -3.721000000     2.004000000
C    -4.880000000    -2.507000000     1.302000000
C    -5.752000000    -2.569000000     0.223000000
H    -6.205000000    -3.501000000    -0.106000000
C    -6.040000000    -1.463000000    -0.545000000
O    -6.799000000    -1.614000000    -1.658000000
C    -6.565000000    -0.972000000    -2.895000000
C    -5.377000000    -1.164000000    -3.620000000
H    -4.541000000    -1.700000000    -3.177000000
C    -7.622000000    -0.395000000    -3.575000000
H    -8.630000000    -0.441000000    -3.171000000
C    -7.516000000     0.109000000    -4.876000000
H    -8.410000000     0.392000000    -5.426000000
C    -6.302000000    -0.067000000    -5.546000000
H    -6.206000000     0.277000000    -6.573000000
C    -5.227000000    -0.698000000    -4.938000000
O    -4.079000000    -0.878000000    -5.683000000
C    -2.713000000    -0.496000000    -5.441000000
C    -1.718000000    -1.230000000    -6.073000000
H    -1.845000000    -2.155000000    -6.630000000
C    -0.429000000    -0.688000000    -5.911000000
O     0.599000000    -1.375000000    -6.525000000
C     1.959000000    -1.179000000    -6.406000000
C     2.669000000    -1.834000000    -5.390000000
H     2.166000000    -2.513000000    -4.707000000
C     2.615000000    -0.326000000    -7.289000000
H     2.068000000    -0.029000000    -8.180000000
C     3.973000000    -0.124000000    -7.230000000
H     4.383000000     0.458000000    -8.052000000
C     4.712000000    -0.892000000    -6.269000000
H     5.794000000    -0.990000000    -6.307000000
C     4.018000000    -1.673000000    -5.354000000
O     4.713000000    -2.338000000    -4.397000000
C     4.702000000    -2.041000000    -3.026000000
C     5.226000000    -2.933000000    -2.105000000
H     5.530000000    -3.918000000    -2.452000000
C     5.327000000    -2.638000000    -0.709000000
O     5.842000000    -3.549000000     0.212000000
C     5.789000000    -3.432000000     1.552000000
C     6.931000000    -3.092000000     2.300000000
H     7.870000000    -2.787000000     1.845000000
C     6.865000000    -3.171000000     3.735000000
H     7.843000000    -3.056000000     4.194000000
C     5.775000000    -3.677000000     4.406000000
H     5.829000000    -3.837000000     5.480000000
C     4.648000000    -3.979000000     3.626000000
C     4.662000000    -3.860000000     2.236000000
H     3.842000000    -4.163000000     1.590000000
O     0.988000000    -5.659000000    -4.940000000
H     0.318000000    -5.071000000    -4.592000000
H     1.235000000    -6.207000000    -4.196000000
O     1.776000000   -10.747000000    -0.039000000
H     1.590000000   -10.715000000    -0.977000000
H     1.374000000   -11.563000000     0.258000000
O     2.769000000    -9.299000000    -4.449000000
H     3.403000000    -8.727000000    -4.882000000
H     2.248000000    -8.710000000    -3.904000000
O     1.430000000    -7.287000000    -2.658000000
H     0.477000000    -7.367000000    -2.612000000
H     1.714000000    -7.284000000    -1.744000000
O    -3.119000000    -7.753000000    -3.688000000
H    -3.732000000    -8.363000000    -3.279000000
H    -2.478000000    -7.562000000    -3.003000000
O     2.826000000    -8.564000000     1.711000000
H     2.499000000    -9.276000000     1.162000000
H     2.896000000    -8.948000000     2.585000000
O    -1.727000000    -7.958000000     3.886000000
H    -1.066000000    -7.437000000     3.429000000
H    -2.501000000    -7.908000000     3.326000000
O     4.244000000    -6.269000000    -2.649000000
H     3.332000000    -6.420000000    -2.897000000
H     4.285000000    -6.514000000    -1.724000000
O    -2.582000000    -9.136000000    -0.146000000
H    -2.628000000   -10.028000000     0.200000000
H    -3.389000000    -9.033000000    -0.650000000
O    -1.373000000    -4.348000000    -4.556000000
H    -2.031000000    -4.426000000    -3.865000000
H    -1.755000000    -4.806000000    -5.304000000
O    -0.057000000   -10.220000000     2.116000000
H     0.172000000   -10.267000000     1.188000000
H    -0.459000000    -9.357000000     2.220000000
O    -3.741000000    -5.090000000    -3.295000000
H    -3.896000000    -5.961000000    -3.662000000
H    -3.746000000    -5.226000000    -2.347000000
O    -3.823000000    -8.180000000     2.085000000
H    -4.303000000    -7.359000000     1.978000000
H    -3.427000000    -8.339000000     1.228000000
O     5.453000000    -6.919000000     1.964000000
H     5.647000000    -6.846000000     1.029000000
H     4.497000000    -6.946000000     2.008000000
O     0.276000000    -6.904000000     2.521000000
H     0.227000000    -6.191000000     1.884000000
H     1.210000000    -7.103000000     2.586000000
O     2.908000000    -6.853000000    -0.346000000
H     2.369000000    -6.109000000    -0.076000000
H     2.863000000    -7.460000000     0.392000000
O    -1.042000000    -7.152000000    -1.615000000
H    -0.910000000    -6.359000000    -1.096000000
H    -1.144000000    -7.848000000    -0.967000000
O    -5.983000000    -7.077000000     0.293000000
H    -6.809000000    -7.079000000    -0.192000000
H    -5.393000000    -6.546000000    -0.241000000
O    -3.802000000    -5.197000000    -0.273000000
H    -3.961000000    -4.460000000     0.318000000
H    -2.868000000    -5.385000000    -0.176000000
