201
-1232.13295
C     3.514000000     0.189000000     4.354000000
H     4.151000000    -0.680000000     4.215000000
C     2.154000000     0.110000000     4.269000000
C     1.370000000     1.269000000     4.525000000
H     0.298000000     1.361000000     4.375000000
C     1.355000000    -1.183000000     3.919000000
O     2.192000000    -2.358000000     4.092000000
H     1.061000000    -1.193000000     2.859000000
O     0.205000000    -1.231000000     4.721000000
C    -0.971000000    -1.660000000     4.103000000
C    -1.872000000    -0.652000000     3.772000000
H    -1.657000000     0.321000000     4.208000000
C    -2.969000000    -0.961000000     2.985000000
O    -3.874000000    -0.012000000     2.622000000
C    -3.165000000    -2.283000000     2.480000000
C    -4.416000000    -2.640000000     1.662000000
H    -4.632000000    -3.703000000     1.792000000
C    -4.354000000    -2.286000000     0.193000000
C    -3.847000000    -3.196000000    -0.779000000
H    -3.643000000    -4.235000000    -0.535000000
H    -5.269000000    -2.068000000     2.034000000
C    -2.287000000    -3.295000000     2.869000000
H    -2.253000000    -4.319000000     2.506000000
C    -1.181000000    -2.941000000     3.654000000
C    -0.115000000    -3.954000000     3.903000000
H    -0.591000000    -4.936000000     3.866000000
H     0.250000000    -3.799000000     4.920000000
C     0.977000000    -3.913000000     2.869000000
C     0.813000000    -4.668000000     1.691000000
H    -0.095000000    -5.242000000     1.524000000
C     2.135000000    -3.229000000     3.032000000
C     3.105000000    -3.116000000     2.027000000
H     3.917000000    -2.406000000     2.159000000
C     2.921000000    -3.816000000     0.798000000
O     3.728000000    -3.582000000    -0.329000000
C     3.099000000    -2.597000000    -1.199000000
C     4.026000000    -1.395000000    -1.340000000
C     3.723000000    -0.408000000    -2.311000000
H     2.879000000    -0.595000000    -2.970000000
C     5.157000000    -1.191000000    -0.623000000
H     5.419000000    -1.859000000     0.193000000
O     2.815000000    -3.272000000    -2.402000000
H     2.187000000    -2.103000000    -0.833000000
C     1.676000000    -4.549000000     0.639000000
C     1.395000000    -5.282000000    -0.742000000
H     0.728000000    -6.139000000    -0.631000000
H     2.380000000    -5.702000000    -0.955000000
C     0.764000000    -4.390000000    -1.829000000
C    -0.611000000    -4.489000000    -2.022000000
H    -1.267000000    -5.082000000    -1.390000000
C     1.447000000    -3.475000000    -2.616000000
C     0.795000000    -2.777000000    -3.602000000
H     1.284000000    -2.088000000    -4.286000000
C    -0.581000000    -2.744000000    -3.651000000
O    -1.329000000    -1.844000000    -4.388000000
C    -2.048000000    -0.757000000    -3.742000000
C    -1.746000000     0.590000000    -4.432000000
C    -0.578000000     0.796000000    -5.170000000
H     0.132000000    -0.023000000    -5.249000000
C    -2.662000000     1.599000000    -4.399000000
H    -3.586000000     1.493000000    -3.836000000
O    -3.435000000    -1.175000000    -3.663000000
H    -1.580000000    -0.723000000    -2.746000000
C    -1.339000000    -3.647000000    -2.910000000
C    -2.886000000    -3.742000000    -3.028000000
H    -3.309000000    -4.748000000    -2.998000000
H    -3.161000000    -3.450000000    -4.044000000
C    -3.566000000    -2.889000000    -2.058000000
C    -3.851000000    -1.629000000    -2.478000000
C    -4.432000000    -0.702000000    -1.623000000
H    -4.782000000     0.282000000    -1.923000000
C    -4.604000000    -1.016000000    -0.310000000
O    -4.797000000     0.070000000     0.523000000
C    -3.751000000     0.554000000     1.327000000
H    -2.818000000     0.344000000     0.784000000
C    -3.850000000     2.041000000     1.463000000
C    -3.399000000     2.708000000     2.561000000
H    -2.887000000     2.090000000     3.294000000
C    -4.413000000     2.770000000     0.380000000
H    -4.693000000     2.212000000    -0.510000000
C    -4.430000000     4.113000000     0.467000000
O    -5.077000000     4.851000000    -0.499000000
C    -4.038000000     4.809000000     1.663000000
H    -4.164000000     5.886000000     1.738000000
C    -3.475000000     4.079000000     2.679000000
O    -3.127000000     4.811000000     3.777000000
C    -2.161000000     4.322000000     4.716000000
C    -0.817000000     4.271000000     4.323000000
H    -0.453000000     4.753000000     3.420000000
C    -2.611000000     3.733000000     5.882000000
H    -3.656000000     3.741000000     6.182000000
C    -1.687000000     3.184000000     6.718000000
H    -2.033000000     2.873000000     7.701000000
C    -0.375000000     3.231000000     6.453000000
H     0.385000000     2.886000000     7.149000000
C     0.099000000     3.712000000     5.219000000
O     1.325000000     3.645000000     4.882000000
C     2.025000000     2.440000000     4.685000000
C     3.387000000     2.546000000     4.701000000
H     3.866000000     3.521000000     4.754000000
C     4.143000000     1.416000000     4.513000000
O     5.585000000     1.494000000     4.496000000
C     6.294000000     0.669000000     3.686000000
C     6.245000000     0.933000000     2.303000000
H     5.544000000     1.676000000     1.931000000
C     6.983000000    -0.404000000     4.125000000
H     7.109000000    -0.565000000     5.192000000
C     7.703000000    -1.225000000     3.214000000
H     8.406000000    -2.011000000     3.477000000
C     7.706000000    -0.897000000     1.863000000
H     8.277000000    -1.446000000     1.119000000
C     6.921000000     0.104000000     1.419000000
O     6.947000000     0.311000000     0.036000000
C     5.907000000    -0.044000000    -0.825000000
C     5.630000000     0.821000000    -1.849000000
H     6.322000000     1.648000000    -1.983000000
C     4.624000000     0.596000000    -2.719000000
O     4.252000000     1.557000000    -3.656000000
C     3.621000000     1.165000000    -4.816000000
C     2.531000000     1.888000000    -5.164000000
H     2.084000000     2.549000000    -4.426000000
C     4.334000000     0.447000000    -5.763000000
H     5.251000000    -0.093000000    -5.542000000
C     3.681000000     0.121000000    -6.968000000
H     4.216000000    -0.553000000    -7.632000000
C     2.544000000     0.782000000    -7.277000000
H     2.095000000     0.590000000    -8.249000000
C     1.937000000     1.722000000    -6.397000000
O     0.675000000     2.225000000    -6.674000000
C    -0.378000000     1.977000000    -5.908000000
C    -1.266000000     3.031000000    -5.768000000
H    -1.037000000     4.016000000    -6.167000000
C    -2.401000000     2.880000000    -4.948000000
O    -3.244000000     3.966000000    -4.731000000
C    -4.403000000     3.969000000    -3.930000000
C    -5.633000000     3.756000000    -4.478000000
H    -5.717000000     3.606000000    -5.551000000
C    -6.760000000     3.818000000    -3.589000000
H    -7.772000000     3.691000000    -3.965000000
C    -6.590000000     4.246000000    -2.299000000
H    -7.474000000     4.270000000    -1.667000000
C    -5.337000000     4.347000000    -1.781000000
C    -4.240000000     4.265000000    -2.604000000
H    -3.238000000     4.476000000    -2.238000000
O     2.211000000     8.786000000    -2.909000000
H     1.978000000     8.861000000    -3.834000000
H     1.712000000     9.480000000    -2.479000000
O     5.233000000     8.908000000     0.928000000
H     4.300000000     8.749000000     0.783000000
H     5.411000000     9.727000000     0.466000000
O     0.302000000    10.470000000    -1.821000000
H     0.253000000     9.775000000    -1.164000000
H    -0.223000000    11.182000000    -1.455000000
O    -2.878000000     8.119000000     0.241000000
H    -3.524000000     8.026000000    -0.459000000
H    -3.165000000     8.889000000     0.732000000
O     5.353000000     4.057000000     0.433000000
H     4.601000000     4.307000000     0.971000000
H     5.018000000     4.064000000    -0.463000000
O    -1.143000000     5.964000000    -3.109000000
H    -0.421000000     5.829000000    -3.722000000
H    -0.720000000     6.051000000    -2.255000000
O    -1.687000000     7.745000000     5.003000000
H    -1.417000000     8.636000000     4.779000000
H    -1.614000000     7.260000000     4.181000000
O    -0.242000000     8.241000000    -0.438000000
H    -1.181000000     8.296000000    -0.259000000
H    -0.100000000     7.330000000    -0.693000000
O     2.356000000     5.984000000    -2.138000000
H     1.477000000     5.930000000    -1.764000000
H     2.424000000     6.883000000    -2.461000000
O     3.105000000     4.981000000     1.854000000
H     2.910000000     4.050000000     1.953000000
H     2.270000000     5.376000000     1.604000000
O    -3.198000000     7.389000000    -4.402000000
H    -3.048000000     6.655000000    -3.806000000
H    -2.504000000     8.013000000    -4.192000000
O     4.442000000     4.281000000    -1.949000000
H     4.245000000     3.605000000    -2.597000000
H     3.633000000     4.787000000    -1.876000000
O     1.221000000     7.451000000     3.550000000
H     0.421000000     7.210000000     3.082000000
H     1.192000000     8.407000000     3.596000000
O     2.222000000     6.377000000     5.848000000
H     1.846000000     6.787000000     5.069000000
H     2.159000000     5.437000000     5.678000000
O     2.797000000     2.247000000     1.364000000
H     2.805000000     1.654000000     2.116000000
H     2.068000000     1.942000000     0.825000000
O     1.500000000    11.212000000     0.810000000
H     1.829000000    10.331000000     0.990000000
H     1.515000000    11.283000000    -0.144000000
O     2.203000000     8.406000000     1.028000000
H     2.399000000     7.629000000     1.551000000
H     1.408000000     8.176000000     0.546000000
O    -1.149000000     9.363000000    -3.972000000
H    -0.857000000     9.787000000    -3.165000000
H    -0.372000000     9.355000000    -4.532000000
O    -1.440000000     7.119000000     2.397000000
H    -2.268000000     7.233000000     1.930000000
H    -0.980000000     6.439000000     1.905000000
