201
-1255.93766
C     1.948000000    -3.181000000     3.166000000
H     2.398000000    -3.473000000     2.220000000
C     0.544000000    -3.163000000     3.270000000
C     0.019000000    -2.713000000     4.499000000
H    -1.062000000    -2.727000000     4.612000000
C    -0.329000000    -3.540000000     2.105000000
O     0.276000000    -4.591000000     1.329000000
H    -0.318000000    -2.605000000     1.525000000
O    -1.622000000    -3.999000000     2.494000000
C    -2.664000000    -3.413000000     1.808000000
C    -3.143000000    -2.224000000     2.271000000
H    -2.783000000    -1.848000000     3.225000000
C    -4.135000000    -1.526000000     1.526000000
O    -4.543000000    -0.310000000     2.037000000
C    -4.536000000    -1.980000000     0.280000000
C    -5.583000000    -1.266000000    -0.619000000
H    -6.038000000    -1.996000000    -1.293000000
C    -4.841000000    -0.247000000    -1.470000000
C    -4.282000000    -0.516000000    -2.755000000
H    -4.455000000    -1.511000000    -3.156000000
H    -6.372000000    -0.820000000    -0.009000000
C    -3.986000000    -3.196000000    -0.191000000
H    -4.247000000    -3.623000000    -1.156000000
C    -2.986000000    -3.863000000     0.503000000
C    -2.296000000    -5.092000000    -0.093000000
H    -2.841000000    -5.751000000    -0.772000000
H    -2.007000000    -5.705000000     0.764000000
C    -0.934000000    -4.672000000    -0.752000000
C    -0.878000000    -4.529000000    -2.138000000
H    -1.770000000    -4.665000000    -2.745000000
C     0.234000000    -4.491000000    -0.031000000
C     1.443000000    -4.112000000    -0.674000000
H     2.377000000    -3.994000000    -0.131000000
C     1.457000000    -4.010000000    -2.076000000
O     2.670000000    -3.695000000    -2.646000000
C     2.928000000    -2.308000000    -2.856000000
C     4.409000000    -1.829000000    -2.488000000
C     4.950000000    -0.767000000    -3.219000000
H     4.535000000    -0.355000000    -4.135000000
C     5.002000000    -2.187000000    -1.275000000
H     4.544000000    -2.976000000    -0.683000000
O     2.505000000    -1.872000000    -4.214000000
H     2.226000000    -1.738000000    -2.228000000
C     0.291000000    -4.236000000    -2.840000000
C     0.300000000    -3.897000000    -4.308000000
H    -0.391000000    -4.455000000    -4.943000000
H     1.336000000    -4.037000000    -4.625000000
C     0.125000000    -2.391000000    -4.468000000
C    -1.181000000    -1.851000000    -4.525000000
H    -2.000000000    -2.566000000    -4.546000000
C     1.212000000    -1.483000000    -4.564000000
C     0.917000000    -0.155000000    -4.591000000
H     1.770000000     0.509000000    -4.481000000
C    -0.375000000     0.414000000    -4.560000000
O    -0.536000000     1.741000000    -4.404000000
C    -1.085000000     2.184000000    -3.182000000
C    -0.294000000     3.322000000    -2.561000000
C     1.107000000     3.299000000    -2.601000000
H     1.676000000     2.517000000    -3.097000000
C    -0.889000000     4.390000000    -1.906000000
H    -1.948000000     4.546000000    -2.092000000
O    -2.455000000     2.492000000    -3.371000000
H    -1.018000000     1.383000000    -2.431000000
C    -1.467000000    -0.459000000    -4.653000000
C    -2.862000000     0.124000000    -4.837000000
H    -3.475000000    -0.576000000    -5.409000000
H    -2.904000000     1.082000000    -5.361000000
C    -3.558000000     0.408000000    -3.519000000
C    -3.395000000     1.639000000    -2.935000000
C    -3.716000000     1.905000000    -1.579000000
H    -3.539000000     2.869000000    -1.109000000
C    -4.480000000     0.932000000    -0.888000000
O    -4.812000000     1.321000000     0.394000000
C    -3.988000000     0.840000000     1.449000000
H    -3.134000000     0.426000000     0.894000000
C    -3.642000000     1.924000000     2.399000000
C    -2.903000000     1.561000000     3.518000000
H    -2.722000000     0.505000000     3.706000000
C    -4.002000000     3.243000000     2.155000000
H    -4.427000000     3.611000000     1.225000000
C    -3.705000000     4.218000000     3.135000000
O    -3.889000000     5.561000000     2.788000000
C    -2.955000000     3.899000000     4.253000000
H    -2.675000000     4.649000000     4.989000000
C    -2.550000000     2.564000000     4.432000000
O    -1.755000000     2.338000000     5.558000000
C    -1.815000000     1.133000000     6.192000000
C    -0.739000000     0.239000000     6.195000000
H     0.121000000     0.344000000     5.538000000
C    -2.843000000     0.810000000     7.107000000
H    -3.584000000     1.584000000     7.295000000
C    -2.818000000    -0.269000000     7.902000000
H    -3.704000000    -0.385000000     8.521000000
C    -1.791000000    -1.179000000     7.795000000
H    -1.727000000    -2.064000000     8.424000000
C    -0.733000000    -0.887000000     6.970000000
O     0.325000000    -1.766000000     6.743000000
C     0.836000000    -2.193000000     5.520000000
C     2.210000000    -2.260000000     5.396000000
H     2.870000000    -2.102000000     6.245000000
C     2.732000000    -2.713000000     4.213000000
O     4.069000000    -2.650000000     4.178000000
C     4.904000000    -3.197000000     3.224000000
C     5.451000000    -2.309000000     2.292000000
H     5.211000000    -1.256000000     2.419000000
C     5.174000000    -4.521000000     3.149000000
H     4.849000000    -5.147000000     3.976000000
C     5.937000000    -5.081000000     2.116000000
H     6.152000000    -6.144000000     2.183000000
C     6.502000000    -4.169000000     1.207000000
H     7.191000000    -4.516000000     0.441000000
C     6.300000000    -2.832000000     1.297000000
O     6.948000000    -2.000000000     0.320000000
C     6.225000000    -1.593000000    -0.830000000
C     6.699000000    -0.558000000    -1.552000000
H     7.640000000    -0.201000000    -1.140000000
C     6.126000000    -0.123000000    -2.715000000
O     6.541000000     1.057000000    -3.224000000
C     5.711000000     2.101000000    -3.556000000
C     4.695000000     2.548000000    -2.716000000
H     4.795000000     2.148000000    -1.710000000
C     5.904000000     2.659000000    -4.859000000
H     6.753000000     2.389000000    -5.483000000
C     5.113000000     3.712000000    -5.267000000
H     5.205000000     4.166000000    -6.251000000
C     4.188000000     4.254000000    -4.433000000
H     3.529000000     4.988000000    -4.890000000
C     4.064000000     3.760000000    -3.095000000
O     3.243000000     4.382000000    -2.118000000
C     1.894000000     4.369000000    -2.018000000
C     1.236000000     5.375000000    -1.269000000
H     1.907000000     6.089000000    -0.799000000
C    -0.139000000     5.382000000    -1.335000000
O    -0.807000000     6.449000000    -0.748000000
C    -2.066000000     6.512000000    -0.204000000
C    -3.048000000     7.330000000    -0.882000000
H    -2.731000000     7.950000000    -1.717000000
C    -4.209000000     7.590000000    -0.212000000
H    -4.914000000     8.280000000    -0.668000000
C    -4.472000000     7.029000000     1.084000000
H    -5.383000000     7.268000000     1.628000000
C    -3.569000000     6.109000000     1.552000000
C    -2.338000000     5.848000000     0.972000000
H    -1.647000000     5.088000000     1.330000000
O     5.469000000     4.906000000    -0.190000000
H     5.288000000     5.088000000    -1.113000000
H     4.831000000     5.435000000     0.288000000
O     6.609000000     0.999000000     6.943000000
H     6.569000000     1.151000000     5.999000000
H     5.745000000     0.653000000     7.166000000
O     4.302000000    -1.215000000     8.010000000
H     3.583000000    -1.090000000     8.630000000
H     4.139000000    -0.570000000     7.322000000
O     1.021000000     5.222000000     2.061000000
H     0.788000000     6.097000000     2.371000000
H     0.950000000     4.666000000     2.838000000
O     2.927000000     6.799000000     1.324000000
H     3.360000000     6.972000000     2.160000000
H     2.201000000     6.216000000     1.546000000
O     2.237000000     1.695000000     8.557000000
H     1.538000000     1.354000000     9.114000000
H     1.783000000     2.210000000     7.890000000
O     4.462000000     3.950000000     5.448000000
H     3.926000000     3.401000000     4.875000000
H     4.597000000     4.755000000     4.949000000
O     5.024000000     4.726000000     7.951000000
H     4.453000000     4.374000000     7.268000000
H     5.881000000     4.340000000     7.770000000
O     0.773000000     3.702000000     7.168000000
H    -0.174000000     3.819000000     7.254000000
H     0.946000000     3.832000000     6.236000000
O     2.020000000     5.727000000     5.303000000
H     1.689000000     4.917000000     4.916000000
H     2.816000000     5.921000000     4.809000000
O     0.584000000     7.633000000     3.152000000
H    -0.360000000     7.698000000     3.297000000
H     0.968000000     8.213000000     3.811000000
O     3.323000000     0.493000000     6.336000000
H     2.948000000     1.031000000     7.032000000
H     3.239000000     1.028000000     5.547000000
O     4.131000000     6.422000000     3.868000000
H     4.480000000     7.199000000     4.304000000
H     4.854000000     6.109000000     3.323000000
O     7.417000000     1.669000000     1.920000000
H     6.618000000     2.196000000     1.953000000
H     7.626000000     1.610000000     0.988000000
O     0.233000000     6.855000000     7.355000000
H     0.503000000     7.741000000     7.598000000
H     0.832000000     6.607000000     6.650000000
O     1.898000000     5.486000000     9.410000000
H     1.348000000     5.899000000     8.744000000
H     2.525000000     4.962000000     8.911000000
O     2.806000000     3.365000000     0.619000000
H     2.121000000     2.705000000     0.512000000
H     2.336000000     4.162000000     0.865000000
O     4.762000000     2.644000000     2.500000000
H     4.209000000     2.231000000     3.162000000
H     4.149000000     2.951000000     1.832000000
O     6.308000000     4.970000000     2.733000000
H     6.796000000     4.996000000     1.910000000
H     5.926000000     4.093000000     2.758000000
