201
-1252.87372
C    -5.391000000    -0.035000000    -0.895000000
H    -5.166000000     0.711000000    -1.653000000
C    -4.936000000     0.145000000     0.418000000
C    -5.099000000    -0.857000000     1.328000000
H    -4.613000000    -0.831000000     2.301000000
C    -3.912000000     1.210000000     0.693000000
O    -4.135000000     2.270000000    -0.248000000
H    -2.910000000     0.761000000     0.623000000
O    -4.154000000     1.783000000     1.996000000
C    -3.049000000     2.145000000     2.735000000
C    -2.512000000     1.270000000     3.699000000
H    -2.979000000     0.305000000     3.881000000
C    -1.261000000     1.582000000     4.312000000
O    -0.677000000     0.453000000     4.954000000
C    -0.629000000     2.821000000     4.075000000
C     0.700000000     3.182000000     4.764000000
H     0.888000000     4.257000000     4.808000000
C     1.774000000     2.557000000     3.904000000
C     2.471000000     3.303000000     2.963000000
H     2.219000000     4.347000000     2.792000000
H     0.612000000     2.866000000     5.805000000
C    -1.330000000     3.816000000     3.344000000
H    -0.938000000     4.826000000     3.259000000
C    -2.538000000     3.448000000     2.624000000
C    -3.020000000     4.422000000     1.522000000
H    -2.659000000     5.438000000     1.696000000
H    -4.111000000     4.400000000     1.490000000
C    -2.506000000     3.987000000     0.158000000
C    -1.401000000     4.670000000    -0.433000000
H    -0.794000000     5.357000000     0.150000000
C    -3.119000000     3.032000000    -0.717000000
C    -2.691000000     2.772000000    -1.991000000
H    -3.232000000     2.004000000    -2.538000000
C    -1.578000000     3.472000000    -2.503000000
O    -1.137000000     3.119000000    -3.769000000
C    -0.020000000     2.223000000    -3.809000000
C    -0.290000000     1.064000000    -4.724000000
C     0.820000000     0.309000000    -5.220000000
H     1.854000000     0.499000000    -4.945000000
C    -1.597000000     0.628000000    -4.977000000
H    -2.458000000     1.182000000    -4.613000000
O     1.191000000     2.943000000    -3.983000000
H     0.026000000     1.732000000    -2.826000000
C    -0.927000000     4.400000000    -1.715000000
C     0.334000000     5.061000000    -2.095000000
H     0.468000000     6.013000000    -1.578000000
H     0.237000000     5.298000000    -3.156000000
C     1.520000000     4.206000000    -1.983000000
C     2.206000000     4.289000000    -0.758000000
H     1.900000000     5.087000000    -0.087000000
C     1.909000000     3.189000000    -2.840000000
C     3.030000000     2.379000000    -2.620000000
H     3.291000000     1.642000000    -3.376000000
C     3.630000000     2.482000000    -1.362000000
O     4.560000000     1.554000000    -1.024000000
C     4.105000000     0.495000000    -0.139000000
C     4.535000000    -0.880000000    -0.556000000
C     4.845000000    -1.086000000    -1.921000000
H     4.728000000    -0.241000000    -2.595000000
C     4.418000000    -1.978000000     0.324000000
H     4.247000000    -1.872000000     1.392000000
O     4.565000000     0.786000000     1.198000000
H     3.006000000     0.457000000    -0.149000000
C     3.252000000     3.446000000    -0.407000000
C     3.980000000     3.600000000     0.919000000
H     3.944000000     4.655000000     1.197000000
H     5.065000000     3.498000000     0.846000000
C     3.392000000     2.713000000     2.051000000
C     3.699000000     1.368000000     2.168000000
C     3.160000000     0.678000000     3.231000000
H     3.384000000    -0.386000000     3.236000000
C     2.216000000     1.228000000     4.082000000
O     1.512000000     0.289000000     4.842000000
C     0.355000000    -0.186000000     4.193000000
H     0.410000000     0.024000000     3.114000000
C     0.324000000    -1.757000000     4.330000000
C    -0.933000000    -2.454000000     4.368000000
H    -1.840000000    -1.891000000     4.166000000
C     1.445000000    -2.555000000     4.585000000
H     2.352000000    -1.958000000     4.538000000
C     1.314000000    -3.939000000     4.800000000
O     2.439000000    -4.781000000     4.877000000
C     0.096000000    -4.536000000     4.720000000
H    -0.007000000    -5.606000000     4.878000000
C    -1.033000000    -3.808000000     4.530000000
O    -2.239000000    -4.465000000     4.424000000
C    -3.390000000    -3.773000000     4.327000000
C    -4.112000000    -3.919000000     3.131000000
H    -3.557000000    -4.217000000     2.245000000
C    -3.883000000    -3.123000000     5.497000000
H    -3.299000000    -3.095000000     6.413000000
C    -5.081000000    -2.473000000     5.388000000
H    -5.394000000    -1.978000000     6.303000000
C    -5.832000000    -2.565000000     4.183000000
H    -6.759000000    -2.002000000     4.108000000
C    -5.318000000    -3.191000000     3.033000000
O    -6.074000000    -3.100000000     1.887000000
C    -5.843000000    -2.010000000     1.009000000
C    -6.202000000    -2.231000000    -0.290000000
H    -6.766000000    -3.080000000    -0.667000000
C    -5.968000000    -1.241000000    -1.245000000
O    -6.334000000    -1.549000000    -2.584000000
C    -5.885000000    -0.787000000    -3.667000000
C    -4.772000000    -1.211000000    -4.401000000
H    -4.233000000    -2.100000000    -4.086000000
C    -6.407000000     0.422000000    -4.003000000
H    -7.253000000     0.801000000    -3.436000000
C    -5.857000000     1.109000000    -5.043000000
H    -6.338000000     1.999000000    -5.439000000
C    -4.833000000     0.651000000    -5.852000000
H    -4.566000000     1.257000000    -6.714000000
C    -4.261000000    -0.559000000    -5.497000000
O    -3.077000000    -0.991000000    -6.016000000
C    -1.794000000    -0.507000000    -5.819000000
C    -0.706000000    -1.202000000    -6.193000000
H    -0.772000000    -2.116000000    -6.778000000
C     0.609000000    -0.823000000    -5.987000000
O     1.614000000    -1.599000000    -6.452000000
C     2.921000000    -1.458000000    -6.127000000
C     3.465000000    -2.114000000    -5.019000000
H     2.818000000    -2.584000000    -4.283000000
C     3.770000000    -0.673000000    -6.920000000
H     3.460000000    -0.105000000    -7.794000000
C     5.116000000    -0.791000000    -6.780000000
H     5.686000000    -0.102000000    -7.397000000
C     5.630000000    -1.528000000    -5.751000000
H     6.669000000    -1.524000000    -5.434000000
C     4.822000000    -2.094000000    -4.824000000
O     5.409000000    -2.752000000    -3.703000000
C     5.027000000    -2.429000000    -2.379000000
C     4.973000000    -3.503000000    -1.469000000
H     5.303000000    -4.487000000    -1.795000000
C     4.631000000    -3.313000000    -0.121000000
O     4.762000000    -4.329000000     0.751000000
C     4.702000000    -4.239000000     2.171000000
C     5.813000000    -3.721000000     2.849000000
H     6.664000000    -3.541000000     2.198000000
C     5.883000000    -3.705000000     4.226000000
H     6.753000000    -3.333000000     4.761000000
C     4.740000000    -4.151000000     4.904000000
H     4.732000000    -4.064000000     5.987000000
C     3.633000000    -4.530000000     4.241000000
C     3.627000000    -4.679000000     2.899000000
H     2.760000000    -5.115000000     2.409000000
O     0.718000000    -7.138000000    -2.552000000
H     0.304000000    -6.278000000    -2.489000000
H     1.494000000    -7.072000000    -1.997000000
O    -0.391000000    -4.760000000    -7.800000000
H    -0.835000000    -4.749000000    -6.952000000
H    -0.844000000    -5.439000000    -8.300000000
O     3.282000000    -9.077000000     0.010000000
H     3.580000000    -9.358000000    -0.856000000
H     2.344000000    -9.265000000     0.013000000
O     2.153000000    -9.262000000    -5.036000000
H     2.533000000    -8.556000000    -4.514000000
H     1.602000000    -8.816000000    -5.679000000
O     0.162000000   -10.354000000    -3.374000000
H     0.650000000    -9.790000000    -3.974000000
H     0.692000000   -10.371000000    -2.577000000
O     1.386000000    -4.752000000    -4.659000000
H     0.719000000    -4.285000000    -5.161000000
H     1.057000000    -4.746000000    -3.760000000
O    -3.530000000    -5.048000000    -3.071000000
H    -4.392000000    -4.657000000    -2.928000000
H    -3.703000000    -5.816000000    -3.615000000
O     1.951000000    -7.752000000     1.958000000
H     2.531000000    -8.092000000     1.276000000
H     2.506000000    -7.689000000     2.735000000
O    -1.419000000    -8.395000000     2.144000000
H    -0.876000000    -7.720000000     1.737000000
H    -1.998000000    -7.913000000     2.734000000
O     3.148000000    -6.897000000    -4.159000000
H     2.509000000    -6.289000000    -4.532000000
H     3.040000000    -6.805000000    -3.212000000
O    -2.725000000    -9.149000000    -0.369000000
H    -2.034000000    -9.748000000    -0.089000000
H    -2.973000000    -8.680000000     0.427000000
O    -1.531000000    -4.453000000    -5.212000000
H    -2.003000000    -3.700000000    -4.858000000
H    -1.615000000    -5.128000000    -4.539000000
O    -3.920000000    -7.077000000    -4.964000000
H    -4.311000000    -7.731000000    -4.385000000
H    -2.983000000    -7.118000000    -4.774000000
O    -1.105000000    -7.811000000    -4.643000000
H    -0.548000000    -7.419000000    -3.970000000
H    -0.507000000    -8.005000000    -5.365000000
O    -5.251000000    -5.225000000     0.186000000
H    -4.311000000    -5.391000000     0.258000000
H    -5.361000000    -4.330000000     0.508000000
O    -0.175000000    -6.040000000     1.630000000
H     0.314000000    -5.582000000     0.946000000
H     0.495000000    -6.503000000     2.133000000
O     3.048000000    -6.192000000    -1.181000000
H     2.295000000    -5.741000000    -0.800000000
H     3.774000000    -5.578000000    -1.075000000
O    -2.397000000    -5.496000000    -0.370000000
H    -2.394000000    -5.461000000    -1.326000000
H    -1.471000000    -5.520000000    -0.128000000
O    -1.850000000    -1.018000000     1.722000000
H    -2.507000000    -1.446000000     1.174000000
H    -1.059000000    -1.007000000     1.182000000
