201
-1244.38564
C     1.498000000    -3.602000000     3.887000000
H     1.890000000    -4.415000000     3.282000000
C     0.159000000    -3.220000000     3.636000000
C    -0.369000000    -2.213000000     4.478000000
H    -1.380000000    -1.851000000     4.308000000
C    -0.543000000    -3.616000000     2.406000000
O    -0.030000000    -4.866000000     1.928000000
H    -0.432000000    -2.788000000     1.690000000
O    -1.934000000    -3.768000000     2.576000000
C    -2.729000000    -3.136000000     1.625000000
C    -3.286000000    -1.905000000     1.874000000
H    -3.038000000    -1.409000000     2.809000000
C    -4.151000000    -1.324000000     0.960000000
O    -4.698000000    -0.078000000     1.181000000
C    -4.358000000    -1.938000000    -0.284000000
C    -5.214000000    -1.371000000    -1.334000000
H    -5.601000000    -2.149000000    -1.996000000
C    -4.458000000    -0.320000000    -2.132000000
C    -3.781000000    -0.709000000    -3.282000000
H    -3.942000000    -1.759000000    -3.511000000
H    -6.048000000    -0.875000000    -0.834000000
C    -3.855000000    -3.188000000    -0.492000000
H    -4.068000000    -3.693000000    -1.431000000
C    -3.080000000    -3.849000000     0.457000000
C    -2.308000000    -5.113000000     0.066000000
H    -2.736000000    -5.546000000    -0.841000000
H    -2.449000000    -5.781000000     0.919000000
C    -0.860000000    -4.882000000    -0.363000000
C    -0.603000000    -4.663000000    -1.671000000
H    -1.438000000    -4.590000000    -2.363000000
C     0.190000000    -4.890000000     0.550000000
C     1.485000000    -4.477000000     0.160000000
H     2.326000000    -4.467000000     0.849000000
C     1.827000000    -4.275000000    -1.134000000
O     3.068000000    -3.808000000    -1.552000000
C     3.117000000    -2.358000000    -1.788000000
C     4.278000000    -1.664000000    -1.080000000
C     4.505000000    -0.291000000    -1.295000000
H     3.737000000     0.244000000    -1.849000000
C     4.969000000    -2.222000000    -0.019000000
H     4.691000000    -3.213000000     0.332000000
O     3.166000000    -2.118000000    -3.244000000
H     2.202000000    -1.862000000    -1.434000000
C     0.716000000    -4.385000000    -2.059000000
C     1.067000000    -4.101000000    -3.480000000
H     0.335000000    -4.634000000    -4.089000000
H     2.031000000    -4.425000000    -3.880000000
C     0.897000000    -2.606000000    -3.777000000
C    -0.362000000    -2.211000000    -4.136000000
H    -1.219000000    -2.861000000    -4.291000000
C     1.981000000    -1.722000000    -3.731000000
C     1.742000000    -0.330000000    -4.049000000
H     2.545000000     0.395000000    -3.935000000
C     0.471000000     0.095000000    -4.383000000
O     0.245000000     1.395000000    -4.699000000
C    -0.401000000     2.167000000    -3.698000000
C     0.118000000     3.598000000    -3.583000000
C     1.521000000     3.791000000    -3.486000000
H     2.147000000     2.917000000    -3.647000000
C    -0.697000000     4.603000000    -3.096000000
H    -1.748000000     4.479000000    -2.849000000
O    -1.810000000     2.257000000    -3.960000000
H    -0.240000000     1.795000000    -2.676000000
C    -0.585000000    -0.831000000    -4.411000000
C    -1.918000000    -0.403000000    -4.983000000
H    -2.498000000    -1.088000000    -5.607000000
H    -1.681000000     0.469000000    -5.597000000
C    -2.815000000     0.073000000    -3.917000000
C    -2.724000000     1.390000000    -3.439000000
C    -3.550000000     1.835000000    -2.396000000
H    -3.503000000     2.869000000    -2.065000000
C    -4.406000000     0.962000000    -1.752000000
O    -4.819000000     1.470000000    -0.572000000
C    -4.075000000     1.053000000     0.630000000
H    -3.074000000     0.835000000     0.230000000
C    -3.844000000     2.178000000     1.636000000
C    -3.870000000     1.951000000     3.027000000
H    -4.039000000     0.973000000     3.468000000
C    -3.687000000     3.517000000     1.208000000
H    -3.602000000     3.679000000     0.137000000
C    -3.424000000     4.596000000     2.057000000
O    -3.251000000     5.914000000     1.659000000
C    -3.415000000     4.293000000     3.475000000
H    -3.215000000     5.142000000     4.123000000
C    -3.542000000     2.978000000     3.954000000
O    -3.435000000     2.726000000     5.341000000
C    -3.091000000     1.492000000     5.822000000
C    -1.734000000     1.035000000     5.824000000
H    -0.938000000     1.687000000     5.472000000
C    -4.084000000     0.698000000     6.377000000
H    -5.012000000     1.241000000     6.537000000
C    -3.743000000    -0.559000000     6.774000000
H    -4.518000000    -1.161000000     7.241000000
C    -2.408000000    -1.017000000     6.832000000
H    -2.222000000    -1.998000000     7.262000000
C    -1.388000000    -0.213000000     6.373000000
O    -0.058000000    -0.537000000     6.241000000
C     0.366000000    -1.650000000     5.468000000
C     1.669000000    -2.111000000     5.762000000
H     2.267000000    -1.697000000     6.571000000
C     2.266000000    -3.062000000     4.892000000
O     3.543000000    -3.466000000     5.176000000
C     4.453000000    -3.845000000     4.271000000
C     4.957000000    -2.878000000     3.419000000
H     4.472000000    -1.905000000     3.430000000
C     4.995000000    -5.089000000     4.275000000
H     4.571000000    -5.816000000     4.963000000
C     5.889000000    -5.526000000     3.289000000
H     6.195000000    -6.569000000     3.309000000
C     6.420000000    -4.542000000     2.464000000
H     7.256000000    -4.870000000     1.852000000
C     5.998000000    -3.200000000     2.515000000
O     6.604000000    -2.234000000     1.784000000
C     5.984000000    -1.617000000     0.694000000
C     6.284000000    -0.286000000     0.311000000
H     7.117000000     0.204000000     0.809000000
C     5.506000000     0.390000000    -0.671000000
O     5.625000000     1.756000000    -0.813000000
C     5.455000000     2.448000000    -2.008000000
C     4.551000000     3.553000000    -2.041000000
H     3.889000000     3.889000000    -1.248000000
C     6.115000000     2.056000000    -3.170000000
H     6.756000000     1.181000000    -3.109000000
C     5.939000000     2.780000000    -4.322000000
H     6.557000000     2.513000000    -5.176000000
C     5.077000000     3.921000000    -4.321000000
H     5.075000000     4.619000000    -5.155000000
C     4.295000000     4.163000000    -3.249000000
O     3.442000000     5.210000000    -3.224000000
C     2.070000000     5.003000000    -3.248000000
C     1.238000000     6.095000000    -3.032000000
H     1.657000000     7.092000000    -2.923000000
C    -0.141000000     5.903000000    -2.851000000
O    -0.845000000     7.018000000    -2.412000000
C    -2.050000000     6.830000000    -1.725000000
C    -3.259000000     7.086000000    -2.393000000
H    -3.227000000     7.400000000    -3.434000000
C    -4.415000000     6.914000000    -1.683000000
H    -5.292000000     6.962000000    -2.324000000
C    -4.441000000     6.624000000    -0.350000000
H    -5.403000000     6.508000000     0.141000000
C    -3.272000000     6.374000000     0.343000000
C    -2.045000000     6.408000000    -0.399000000
H    -1.090000000     6.070000000    -0.004000000
O     2.269000000     5.770000000     0.213000000
H     1.552000000     6.371000000     0.420000000
H     2.260000000     5.132000000     0.926000000
O     7.666000000     5.085000000     0.240000000
H     8.099000000     5.905000000     0.478000000
H     6.877000000     5.064000000     0.781000000
O     5.996000000     7.817000000     2.229000000
H     6.087000000     7.072000000     2.824000000
H     6.691000000     8.420000000     2.492000000
O     1.464000000     7.859000000     4.962000000
H     1.800000000     8.412000000     5.668000000
H     2.211000000     7.319000000     4.705000000
O     2.223000000     2.891000000     5.434000000
H     2.668000000     3.597000000     5.903000000
H     2.723000000     2.789000000     4.624000000
O     5.690000000     3.370000000     6.257000000
H     6.411000000     2.871000000     6.640000000
H     5.177000000     2.720000000     5.777000000
O     0.147000000     4.459000000     4.320000000
H     0.570000000     4.002000000     5.047000000
H     0.704000000     4.273000000     3.564000000
O     3.372000000     5.121000000     6.303000000
H     3.536000000     5.668000000     5.535000000
H     4.228000000     4.751000000     6.519000000
O     3.129000000     5.919000000     3.623000000
H     3.287000000     6.445000000     2.839000000
H     2.754000000     5.103000000     3.291000000
O     0.407000000     7.387000000     1.696000000
H     1.110000000     8.036000000     1.675000000
H     0.044000000     7.457000000     2.579000000
O     4.233000000     0.149000000     7.477000000
H     4.203000000     0.070000000     6.523000000
H     5.047000000     0.621000000     7.653000000
O     4.955000000     7.125000000    -0.396000000
H     4.199000000     6.560000000    -0.242000000
H     5.264000000     7.356000000     0.480000000
O     6.170000000     5.468000000     3.908000000
H     6.350000000     4.965000000     4.703000000
H     5.830000000     4.823000000     3.288000000
O     0.357000000     2.427000000     7.596000000
H     0.679000000     3.258000000     7.946000000
H     0.774000000     2.350000000     6.738000000
O     5.446000000     3.780000000     1.930000000
H     5.487000000     3.072000000     1.287000000
H     4.682000000     3.573000000     2.467000000
O    -1.070000000     6.808000000     4.393000000
H    -0.982000000     5.862000000     4.280000000
H    -0.245000000     7.078000000     4.798000000
O     4.810000000     1.109000000     4.769000000
H     4.398000000     1.642000000     4.089000000
H     5.519000000     0.652000000     4.317000000
O     8.612000000     2.161000000     4.068000000
H     8.081000000     2.614000000     3.413000000
H     8.104000000     1.381000000     4.289000000
O     1.412000000     4.882000000     8.185000000
H     2.014000000     5.335000000     8.776000000
H     1.801000000     4.990000000     7.318000000
