201
-1226.27365
C     1.836000000    -3.259000000     3.957000000
H     2.134000000    -3.958000000     3.179000000
C     0.559000000    -2.784000000     3.895000000
C     0.179000000    -1.847000000     4.831000000
H    -0.788000000    -1.359000000     4.744000000
C    -0.360000000    -3.117000000     2.750000000
O    -0.047000000    -4.404000000     2.254000000
H    -0.219000000    -2.327000000     1.997000000
O    -1.689000000    -3.133000000     3.224000000
C    -2.696000000    -2.744000000     2.333000000
C    -3.433000000    -1.552000000     2.633000000
H    -3.080000000    -0.980000000     3.488000000
C    -4.342000000    -1.019000000     1.775000000
O    -4.723000000     0.258000000     1.917000000
C    -4.609000000    -1.696000000     0.537000000
C    -5.478000000    -1.037000000    -0.514000000
H    -5.984000000    -1.827000000    -1.072000000
C    -4.654000000    -0.203000000    -1.480000000
C    -4.206000000    -0.626000000    -2.750000000
H    -4.474000000    -1.651000000    -2.992000000
H    -6.292000000    -0.435000000    -0.106000000
C    -4.004000000    -2.925000000     0.329000000
H    -4.272000000    -3.477000000    -0.568000000
C    -3.085000000    -3.506000000     1.246000000
C    -2.542000000    -4.885000000     0.879000000
H    -3.240000000    -5.481000000     0.289000000
H    -2.511000000    -5.596000000     1.707000000
C    -1.180000000    -4.721000000     0.211000000
C    -1.123000000    -4.668000000    -1.218000000
H    -2.044000000    -4.798000000    -1.781000000
C    -0.021000000    -4.529000000     0.904000000
C     1.093000000    -4.138000000     0.209000000
H     1.971000000    -3.830000000     0.771000000
C     1.194000000    -4.164000000    -1.200000000
O     2.440000000    -3.790000000    -1.728000000
C     2.554000000    -2.399000000    -2.124000000
C     3.988000000    -1.919000000    -1.746000000
C     4.522000000    -0.813000000    -2.347000000
H     3.979000000    -0.269000000    -3.116000000
C     4.674000000    -2.470000000    -0.659000000
H     4.312000000    -3.376000000    -0.179000000
O     2.386000000    -2.328000000    -3.600000000
H     1.717000000    -1.871000000    -1.643000000
C     0.081000000    -4.429000000    -1.981000000
C     0.112000000    -4.243000000    -3.519000000
H    -0.772000000    -4.714000000    -3.954000000
H     1.054000000    -4.685000000    -3.851000000
C     0.000000000    -2.844000000    -4.016000000
C    -1.294000000    -2.242000000    -4.276000000
H    -2.146000000    -2.909000000    -4.174000000
C     1.109000000    -1.965000000    -4.093000000
C     0.982000000    -0.613000000    -4.399000000
H     1.750000000     0.141000000    -4.243000000
C    -0.315000000    -0.182000000    -4.676000000
O    -0.401000000     1.171000000    -4.941000000
C    -1.001000000     1.989000000    -3.914000000
C    -0.288000000     3.357000000    -3.720000000
C     1.112000000     3.398000000    -3.878000000
H     1.649000000     2.506000000    -4.190000000
C    -0.993000000     4.561000000    -3.514000000
H    -2.075000000     4.609000000    -3.415000000
O    -2.418000000     2.187000000    -4.060000000
H    -0.816000000     1.503000000    -2.944000000
C    -1.440000000    -0.923000000    -4.625000000
C    -2.854000000    -0.458000000    -4.924000000
H    -3.302000000    -1.438000000    -5.099000000
H    -2.960000000     0.169000000    -5.812000000
C    -3.471000000     0.169000000    -3.648000000
C    -3.197000000     1.427000000    -3.302000000
C    -3.550000000     1.939000000    -2.023000000
H    -3.244000000     2.971000000    -1.872000000
C    -4.272000000     1.115000000    -1.099000000
O    -4.626000000     1.743000000     0.118000000
C    -3.901000000     1.297000000     1.248000000
H    -2.966000000     0.739000000     1.088000000
C    -3.485000000     2.421000000     2.225000000
C    -3.271000000     2.231000000     3.620000000
H    -3.523000000     1.275000000     4.072000000
C    -2.988000000     3.614000000     1.636000000
H    -2.961000000     3.608000000     0.549000000
C    -2.518000000     4.687000000     2.372000000
O    -1.945000000     5.826000000     1.703000000
C    -2.511000000     4.536000000     3.743000000
H    -2.018000000     5.280000000     4.364000000
C    -2.762000000     3.295000000     4.332000000
O    -2.277000000     3.043000000     5.615000000
C    -2.158000000     1.805000000     6.167000000
C    -0.872000000     1.261000000     6.185000000
H    -0.031000000     1.827000000     5.794000000
C    -3.244000000     1.141000000     6.677000000
H    -4.228000000     1.585000000     6.554000000
C    -3.028000000    -0.157000000     7.198000000
H    -3.913000000    -0.728000000     7.466000000
C    -1.757000000    -0.633000000     7.328000000
H    -1.589000000    -1.576000000     7.842000000
C    -0.651000000     0.014000000     6.798000000
O     0.549000000    -0.567000000     6.834000000
C     1.039000000    -1.392000000     5.852000000
C     2.283000000    -1.904000000     5.899000000
H     2.993000000    -1.655000000     6.684000000
C     2.692000000    -2.893000000     5.000000000
O     4.015000000    -3.277000000     5.049000000
C     4.790000000    -3.615000000     3.976000000
C     5.195000000    -2.748000000     2.971000000
H     4.769000000    -1.753000000     2.879000000
C     5.306000000    -4.949000000     4.002000000
H     5.037000000    -5.641000000     4.796000000
C     6.289000000    -5.373000000     3.115000000
H     6.872000000    -6.284000000     3.228000000
C     6.627000000    -4.520000000     2.086000000
H     7.348000000    -4.836000000     1.337000000
C     6.072000000    -3.188000000     1.969000000
O     6.522000000    -2.376000000     0.950000000
C     5.882000000    -1.882000000    -0.151000000
C     6.356000000    -0.714000000    -0.747000000
H     7.284000000    -0.289000000    -0.374000000
C     5.685000000    -0.172000000    -1.876000000
O     6.088000000     1.055000000    -2.306000000
C     5.591000000     1.795000000    -3.335000000
C     4.676000000     2.784000000    -3.063000000
H     4.420000000     2.975000000    -2.024000000
C     6.013000000     1.561000000    -4.666000000
H     6.675000000     0.734000000    -4.910000000
C     5.404000000     2.271000000    -5.721000000
H     5.746000000     2.061000000    -6.731000000
C     4.362000000     3.107000000    -5.414000000
H     3.847000000     3.653000000    -6.200000000
C     4.003000000     3.388000000    -4.120000000
O     3.228000000     4.527000000    -3.813000000
C     1.837000000     4.553000000    -3.630000000
C     1.173000000     5.754000000    -3.493000000
H     1.857000000     6.586000000    -3.346000000
C    -0.262000000     5.762000000    -3.392000000
O    -0.968000000     6.875000000    -2.963000000
C    -1.821000000     6.771000000    -1.833000000
C    -3.182000000     6.951000000    -2.068000000
H    -3.427000000     7.206000000    -3.096000000
C    -4.096000000     6.871000000    -1.003000000
H    -5.140000000     7.039000000    -1.256000000
C    -3.608000000     6.515000000     0.277000000
H    -4.241000000     6.401000000     1.154000000
C    -2.310000000     6.187000000     0.472000000
C    -1.347000000     6.400000000    -0.540000000
H    -0.333000000     6.182000000    -0.215000000
O     1.956000000     7.589000000     6.966000000
H     1.872000000     6.961000000     7.683000000
H     2.238000000     7.062000000     6.218000000
O     7.530000000     6.167000000     5.580000000
H     8.255000000     5.716000000     5.147000000
H     6.793000000     5.561000000     5.506000000
O     5.454000000     2.053000000     7.119000000
H     6.154000000     2.287000000     7.728000000
H     5.906000000     1.866000000     6.296000000
O     1.695000000     2.659000000     8.408000000
H     2.079000000     1.987000000     8.972000000
H     1.965000000     2.411000000     7.524000000
O     2.452000000     6.797000000     2.014000000
H     2.076000000     5.918000000     1.963000000
H     2.670000000     6.912000000     2.939000000
O     3.833000000     6.978000000     4.578000000
H     4.150000000     6.084000000     4.710000000
H     4.157000000     7.462000000     5.338000000
O     2.748000000     8.120000000    -0.537000000
H     2.773000000     7.583000000     0.256000000
H     3.430000000     7.749000000    -1.098000000
O     4.727000000     4.578000000     4.104000000
H     5.103000000     3.705000000     4.219000000
H     4.018000000     4.453000000     3.473000000
O     5.585000000     1.949000000     4.496000000
H     4.737000000     2.043000000     4.063000000
H     5.969000000     1.165000000     4.103000000
O     5.971000000     7.546000000     1.793000000
H     6.714000000     7.673000000     2.383000000
H     5.228000000     7.385000000     2.375000000
O     5.751000000     2.731000000     0.763000000
H     5.161000000     2.648000000     1.511000000
H     5.809000000     1.845000000     0.404000000
O     2.580000000     2.590000000     5.520000000
H     3.509000000     2.372000000     5.585000000
H     2.282000000     2.140000000     4.730000000
O     1.064000000     4.988000000     5.007000000
H     1.540000000     4.390000000     5.583000000
H     1.278000000     4.689000000     4.123000000
O     3.107000000     5.205000000    -0.381000000
H     2.334000000     5.194000000     0.185000000
H     3.829000000     4.957000000     0.195000000
O    -0.495000000     7.351000000     5.147000000
H    -1.069000000     7.208000000     5.899000000
H     0.286000000     6.831000000     5.338000000
O     4.933000000     6.275000000    -2.195000000
H     5.121000000     5.700000000    -2.937000000
H     4.325000000     5.774000000    -1.652000000
O     7.691000000     3.301000000     5.744000000
H     7.096000000     2.710000000     5.282000000
H     8.552000000     3.116000000     5.369000000
O     6.907000000    -0.364000000     3.977000000
H     7.057000000    -1.221000000     3.579000000
H     7.734000000     0.103000000     3.861000000
O     8.116000000     4.718000000     1.352000000
H     7.955000000     5.408000000     0.708000000
H     7.586000000     3.980000000     1.051000000
