201
-1238.09851
C    -0.035000000    -3.228000000     4.111000000
H     0.097000000    -3.994000000     3.350000000
C    -1.112000000    -2.387000000     3.912000000
C    -1.108000000    -1.175000000     4.600000000
H    -1.849000000    -0.407000000     4.398000000
C    -1.962000000    -2.667000000     2.669000000
O    -2.056000000    -4.013000000     2.236000000
H    -1.528000000    -2.091000000     1.838000000
O    -3.228000000    -2.231000000     2.969000000
C    -3.827000000    -1.465000000     2.051000000
C    -3.950000000    -0.057000000     2.188000000
H    -3.607000000     0.386000000     3.119000000
C    -4.467000000     0.720000000     1.161000000
O    -4.276000000     2.041000000     1.187000000
C    -4.708000000     0.144000000    -0.079000000
C    -5.184000000     0.837000000    -1.418000000
H    -5.915000000     0.211000000    -1.934000000
C    -3.985000000     1.275000000    -2.264000000
C    -3.504000000     0.548000000    -3.324000000
H    -3.961000000    -0.411000000    -3.554000000
H    -5.872000000     1.659000000    -1.211000000
C    -4.588000000    -1.278000000    -0.164000000
H    -4.787000000    -1.689000000    -1.150000000
C    -4.221000000    -2.095000000     0.859000000
C    -4.213000000    -3.574000000     0.630000000
H    -5.062000000    -3.913000000     0.033000000
H    -4.557000000    -4.061000000     1.544000000
C    -2.843000000    -4.088000000     0.058000000
C    -2.692000000    -4.130000000    -1.321000000
H    -3.544000000    -3.927000000    -1.965000000
C    -1.817000000    -4.281000000     0.949000000
C    -0.551000000    -4.557000000     0.454000000
H     0.225000000    -4.785000000     1.181000000
C    -0.345000000    -4.678000000    -0.892000000
O     0.940000000    -4.820000000    -1.242000000
C     1.659000000    -3.577000000    -1.514000000
C     3.071000000    -3.552000000    -0.961000000
C     3.849000000    -2.405000000    -1.229000000
H     3.445000000    -1.685000000    -1.936000000
C     3.476000000    -4.461000000     0.034000000
H     2.844000000    -5.319000000     0.248000000
O     1.714000000    -3.570000000    -2.899000000
H     1.081000000    -2.679000000    -1.250000000
C    -1.380000000    -4.431000000    -1.820000000
C    -1.051000000    -4.441000000    -3.288000000
H    -1.910000000    -4.737000000    -3.894000000
H    -0.268000000    -5.194000000    -3.404000000
C    -0.509000000    -3.073000000    -3.705000000
C    -1.336000000    -2.170000000    -4.342000000
H    -2.310000000    -2.408000000    -4.760000000
C     0.851000000    -2.751000000    -3.517000000
C     1.338000000    -1.478000000    -3.796000000
H     2.379000000    -1.193000000    -3.666000000
C     0.442000000    -0.551000000    -4.338000000
O     0.990000000     0.748000000    -4.495000000
C     0.572000000     1.799000000    -3.502000000
C     1.726000000     2.786000000    -3.250000000
C     3.065000000     2.423000000    -3.506000000
H     3.204000000     1.478000000    -4.024000000
C     1.502000000     4.024000000    -2.731000000
H     0.472000000     4.314000000    -2.541000000
O    -0.519000000     2.482000000    -4.085000000
H     0.258000000     1.296000000    -2.576000000
C    -0.914000000    -0.871000000    -4.599000000
C    -1.974000000     0.086000000    -5.186000000
H    -2.893000000    -0.341000000    -5.594000000
H    -1.597000000     0.670000000    -6.029000000
C    -2.420000000     1.004000000    -4.080000000
C    -1.758000000     2.160000000    -3.683000000
C    -2.196000000     2.933000000    -2.583000000
H    -1.686000000     3.818000000    -2.213000000
C    -3.310000000     2.495000000    -1.913000000
O    -3.583000000     3.264000000    -0.762000000
C    -3.174000000     2.700000000     0.472000000
H    -2.357000000     1.976000000     0.337000000
C    -2.593000000     3.915000000     1.283000000
C    -2.405000000     3.699000000     2.647000000
H    -2.643000000     2.702000000     3.009000000
C    -2.227000000     5.144000000     0.685000000
H    -2.268000000     5.312000000    -0.388000000
C    -1.822000000     6.205000000     1.457000000
O    -1.324000000     7.398000000     0.911000000
C    -1.728000000     5.996000000     2.854000000
H    -1.179000000     6.686000000     3.489000000
C    -1.918000000     4.711000000     3.416000000
O    -1.715000000     4.481000000     4.773000000
C    -1.965000000     3.314000000     5.345000000
C    -0.987000000     2.336000000     5.449000000
H    -0.038000000     2.412000000     4.925000000
C    -3.145000000     3.225000000     6.054000000
H    -3.931000000     3.973000000     5.986000000
C    -3.336000000     2.113000000     6.834000000
H    -4.240000000     2.071000000     7.436000000
C    -2.416000000     1.084000000     6.918000000
H    -2.594000000     0.378000000     7.726000000
C    -1.196000000     1.174000000     6.252000000
O    -0.247000000     0.207000000     6.445000000
C    -0.162000000    -0.931000000     5.668000000
C     0.814000000    -1.844000000     5.915000000
H     1.466000000    -1.768000000     6.782000000
C     0.901000000    -3.003000000     5.144000000
O     1.810000000    -3.969000000     5.370000000
C     2.352000000    -4.909000000     4.472000000
C     3.345000000    -4.509000000     3.561000000
H     3.532000000    -3.444000000     3.451000000
C     2.172000000    -6.271000000     4.636000000
H     1.467000000    -6.627000000     5.384000000
C     2.839000000    -7.189000000     3.806000000
H     2.675000000    -8.262000000     3.864000000
C     3.726000000    -6.740000000     2.829000000
H     4.382000000    -7.398000000     2.265000000
C     3.972000000    -5.433000000     2.701000000
O     4.977000000    -5.047000000     1.833000000
C     4.654000000    -4.252000000     0.768000000
C     5.520000000    -3.208000000     0.380000000
H     6.479000000    -2.979000000     0.838000000
C     5.070000000    -2.300000000    -0.649000000
O     5.943000000    -1.287000000    -1.044000000
C     5.848000000    -0.578000000    -2.244000000
C     5.692000000     0.789000000    -2.272000000
H     5.410000000     1.317000000    -1.364000000
C     6.116000000    -1.226000000    -3.487000000
H     6.281000000    -2.292000000    -3.620000000
C     6.311000000    -0.488000000    -4.676000000
H     6.456000000    -0.895000000    -5.674000000
C     5.996000000     0.831000000    -4.691000000
H     5.912000000     1.431000000    -5.594000000
C     5.730000000     1.470000000    -3.481000000
O     5.397000000     2.801000000    -3.545000000
C     4.124000000     3.201000000    -3.170000000
C     3.949000000     4.435000000    -2.534000000
H     4.818000000     4.996000000    -2.200000000
C     2.617000000     4.855000000    -2.293000000
O     2.364000000     6.101000000    -1.703000000
C     1.131000000     6.623000000    -1.602000000
C     0.550000000     7.099000000    -2.742000000
H     1.101000000     6.955000000    -3.667000000
C    -0.746000000     7.618000000    -2.692000000
H    -1.194000000     7.810000000    -3.664000000
C    -1.330000000     7.732000000    -1.422000000
H    -2.339000000     8.133000000    -1.375000000
C    -0.687000000     7.335000000    -0.287000000
C     0.596000000     6.835000000    -0.364000000
H     1.136000000     6.512000000     0.522000000
O     3.438000000     5.532000000     1.860000000
H     3.584000000     4.649000000     1.521000000
H     3.294000000     5.407000000     2.798000000
O     2.711000000     4.470000000     4.895000000
H     2.458000000     5.252000000     5.385000000
H     3.506000000     4.161000000     5.330000000
O     8.270000000     2.751000000    -0.510000000
H     8.229000000     2.148000000     0.233000000
H     7.366000000     3.043000000    -0.630000000
O     2.650000000     1.734000000     4.195000000
H     2.901000000     1.432000000     3.322000000
H     2.522000000     2.677000000     4.095000000
O     9.218000000    -0.305000000     2.486000000
H     8.723000000    -0.016000000     1.720000000
H     9.317000000    -1.250000000     2.365000000
O     4.430000000     3.569000000     7.121000000
H     3.579000000     3.320000000     7.480000000
H     4.791000000     4.181000000     7.764000000
O     1.813000000     3.034000000     7.694000000
H     1.269000000     3.808000000     7.546000000
H     1.759000000     2.543000000     6.875000000
O     4.906000000     6.193000000     5.106000000
H     4.418000000     6.956000000     5.415000000
H     5.513000000     5.992000000     5.818000000
O     6.706000000    -3.451000000     3.991000000
H     6.760000000    -2.739000000     3.354000000
H     5.943000000    -3.235000000     4.528000000
O     5.733000000     4.083000000     3.151000000
H     5.006000000     4.564000000     3.546000000
H     5.335000000     3.600000000     2.427000000
O     6.092000000     4.319000000     0.245000000
H     6.041000000     5.116000000     0.773000000
H     5.352000000     3.789000000     0.541000000
O     8.633000000     6.118000000     0.096000000
H     8.231000000     5.250000000     0.098000000
H     7.953000000     6.697000000     0.441000000
O     3.991000000     7.911000000     0.506000000
H     4.586000000     7.702000000    -0.214000000
H     3.785000000     7.063000000     0.899000000
O     7.049000000     0.490000000     0.870000000
H     6.806000000    -0.182000000     0.233000000
H     6.213000000     0.816000000     1.204000000
O     4.786000000    -1.857000000     5.443000000
H     5.395000000    -1.236000000     5.044000000
H     4.279000000    -1.331000000     6.061000000
O     9.938000000     0.285000000    -1.160000000
H     9.260000000     0.846000000    -0.783000000
H     9.660000000    -0.605000000    -0.943000000
O     8.143000000     5.369000000     3.871000000
H     8.538000000     4.887000000     4.597000000
H     7.325000000     4.905000000     3.692000000
O     6.492000000    -0.219000000     3.887000000
H     7.356000000     0.137000000     3.681000000
H     5.893000000     0.259000000     3.313000000
O     3.175000000     0.130000000     6.365000000
H     3.253000000     0.845000000     5.733000000
H     2.303000000    -0.232000000     6.211000000
