201
-1236.71379
C     0.754000000    -2.955000000     3.972000000
H     1.217000000    -3.450000000     3.122000000
C    -0.564000000    -2.513000000     3.936000000
C    -0.969000000    -1.670000000     4.941000000
H    -2.008000000    -1.350000000     4.967000000
C    -1.542000000    -2.877000000     2.795000000
O    -1.328000000    -4.168000000     2.229000000
H    -1.282000000    -2.147000000     2.014000000
O    -2.982000000    -2.687000000     3.059000000
C    -3.743000000    -2.011000000     2.179000000
C    -3.988000000    -0.669000000     2.456000000
H    -3.696000000    -0.199000000     3.392000000
C    -4.454000000     0.160000000     1.442000000
O    -4.527000000     1.499000000     1.753000000
C    -4.836000000    -0.387000000     0.245000000
C    -5.487000000     0.483000000    -0.802000000
H    -6.072000000    -0.246000000    -1.366000000
C    -4.460000000     1.183000000    -1.695000000
C    -4.105000000     0.547000000    -2.862000000
H    -4.664000000    -0.372000000    -3.025000000
H    -6.128000000     1.206000000    -0.292000000
C    -4.736000000    -1.783000000     0.053000000
H    -5.049000000    -2.346000000    -0.822000000
C    -4.126000000    -2.617000000     1.020000000
C    -3.917000000    -4.016000000     0.663000000
H    -4.793000000    -4.383000000     0.124000000
H    -3.943000000    -4.489000000     1.647000000
C    -2.515000000    -4.228000000     0.055000000
C    -2.397000000    -4.262000000    -1.324000000
H    -3.265000000    -3.948000000    -1.898000000
C    -1.381000000    -4.472000000     0.846000000
C    -0.155000000    -4.619000000     0.193000000
H     0.644000000    -4.768000000     0.915000000
C     0.007000000    -4.567000000    -1.206000000
O     1.300000000    -4.519000000    -1.709000000
C     1.886000000    -3.282000000    -2.138000000
C     3.360000000    -3.142000000    -1.622000000
C     4.180000000    -2.118000000    -2.221000000
H     3.698000000    -1.580000000    -3.033000000
C     3.821000000    -3.814000000    -0.479000000
H     3.096000000    -4.475000000    -0.010000000
O     1.736000000    -2.992000000    -3.504000000
H     1.298000000    -2.578000000    -1.530000000
C    -1.118000000    -4.346000000    -1.971000000
C    -1.035000000    -4.175000000    -3.516000000
H    -1.942000000    -4.472000000    -4.048000000
H    -0.268000000    -4.919000000    -3.741000000
C    -0.655000000    -2.795000000    -3.858000000
C    -1.740000000    -1.973000000    -4.254000000
H    -2.763000000    -2.327000000    -4.148000000
C     0.591000000    -2.260000000    -3.887000000
C     0.794000000    -0.940000000    -4.258000000
H     1.808000000    -0.557000000    -4.174000000
C    -0.239000000    -0.119000000    -4.644000000
O    -0.013000000     1.227000000    -4.826000000
C    -0.002000000     2.030000000    -3.701000000
C     1.220000000     2.932000000    -3.727000000
C     2.413000000     2.556000000    -4.322000000
H     2.564000000     1.611000000    -4.837000000
C     1.184000000     4.095000000    -2.914000000
H     0.229000000     4.399000000    -2.493000000
O    -1.258000000     2.795000000    -3.843000000
H     0.021000000     1.281000000    -2.897000000
C    -1.531000000    -0.690000000    -4.761000000
C    -2.662000000     0.267000000    -4.943000000
H    -3.541000000    -0.309000000    -5.240000000
H    -2.600000000     0.970000000    -5.777000000
C    -2.978000000     1.022000000    -3.647000000
C    -2.360000000     2.239000000    -3.249000000
C    -2.811000000     2.869000000    -2.041000000
H    -2.152000000     3.624000000    -1.618000000
C    -3.821000000     2.359000000    -1.332000000
O    -4.098000000     2.892000000    -0.077000000
C    -3.486000000     2.326000000     1.054000000
H    -2.620000000     1.707000000     0.776000000
C    -2.846000000     3.349000000     1.994000000
C    -2.876000000     3.232000000     3.434000000
H    -3.445000000     2.429000000     3.896000000
C    -1.955000000     4.362000000     1.531000000
H    -1.964000000     4.593000000     0.469000000
C    -1.126000000     5.133000000     2.375000000
O    -0.445000000     6.149000000     1.760000000
C    -1.165000000     4.982000000     3.725000000
H    -0.633000000     5.670000000     4.376000000
C    -2.048000000     4.047000000     4.245000000
O    -2.050000000     3.861000000     5.626000000
C    -2.240000000     2.624000000     6.236000000
C    -1.265000000     1.607000000     6.233000000
H    -0.376000000     1.818000000     5.644000000
C    -3.297000000     2.548000000     7.149000000
H    -3.987000000     3.388000000     7.121000000
C    -3.390000000     1.417000000     7.983000000
H    -4.238000000     1.334000000     8.658000000
C    -2.484000000     0.380000000     7.950000000
H    -2.493000000    -0.450000000     8.652000000
C    -1.400000000     0.526000000     7.094000000
O    -0.525000000    -0.538000000     7.100000000
C    -0.078000000    -1.267000000     5.991000000
C     1.205000000    -1.679000000     6.006000000
H     1.883000000    -1.361000000     6.794000000
C     1.606000000    -2.524000000     5.003000000
O     2.996000000    -2.761000000     4.930000000
C     3.505000000    -3.837000000     4.162000000
C     4.249000000    -3.455000000     3.007000000
H     4.202000000    -2.406000000     2.723000000
C     3.289000000    -5.199000000     4.465000000
H     2.709000000    -5.473000000     5.342000000
C     3.764000000    -6.121000000     3.591000000
H     3.631000000    -7.136000000     3.955000000
C     4.586000000    -5.780000000     2.536000000
H     5.059000000    -6.576000000     1.967000000
C     4.904000000    -4.462000000     2.282000000
O     5.608000000    -4.115000000     1.114000000
C     5.108000000    -3.435000000     0.031000000
C     5.887000000    -2.477000000    -0.573000000
H     6.870000000    -2.180000000    -0.217000000
C     5.463000000    -1.898000000    -1.770000000
O     6.147000000    -0.866000000    -2.352000000
C     5.901000000    -0.157000000    -3.527000000
C     5.369000000     1.094000000    -3.548000000
H     4.843000000     1.472000000    -2.675000000
C     6.287000000    -0.787000000    -4.776000000
H     6.470000000    -1.855000000    -4.702000000
C     6.094000000    -0.108000000    -5.991000000
H     6.218000000    -0.704000000    -6.891000000
C     5.587000000     1.195000000    -5.975000000
H     5.407000000     1.662000000    -6.940000000
C     5.262000000     1.784000000    -4.766000000
O     4.727000000     3.082000000    -4.764000000
C     3.552000000     3.379000000    -4.247000000
C     3.479000000     4.577000000    -3.509000000
H     4.366000000     5.204000000    -3.527000000
C     2.265000000     4.928000000    -2.923000000
O     2.127000000     6.194000000    -2.294000000
C     1.037000000     6.563000000    -1.621000000
C     0.045000000     7.230000000    -2.341000000
H     0.225000000     7.681000000    -3.313000000
C    -1.145000000     7.479000000    -1.641000000
H    -1.998000000     8.026000000    -2.036000000
C    -1.365000000     7.049000000    -0.326000000
H    -2.316000000     7.386000000     0.079000000
C    -0.342000000     6.462000000     0.373000000
C     0.837000000     6.176000000    -0.268000000
H     1.698000000     5.801000000     0.279000000
O     8.895000000     2.399000000     4.238000000
H     9.309000000     1.563000000     4.026000000
H     7.956000000     2.216000000     4.205000000
O     3.882000000     7.719000000     0.851000000
H     3.927000000     7.626000000     1.803000000
H     3.360000000     8.509000000     0.713000000
O     7.964000000     0.418000000     0.821000000
H     7.213000000     0.968000000     0.597000000
H     8.146000000     0.623000000     1.738000000
O     6.077000000     2.987000000     3.661000000
H     6.370000000     3.826000000     3.304000000
H     5.773000000     2.495000000     2.898000000
O     7.989000000     5.517000000     2.461000000
H     8.910000000     5.321000000     2.632000000
H     7.660000000     5.863000000     3.291000000
O     2.917000000     4.962000000     7.170000000
H     3.634000000     5.333000000     6.656000000
H     2.187000000     5.566000000     7.036000000
O     2.187000000     2.179000000     6.759000000
H     2.661000000     1.774000000     6.033000000
H     2.364000000     3.115000000     6.668000000
O     4.113000000     6.626000000     5.150000000
H     3.727000000     6.252000000     4.358000000
H     3.666000000     7.465000000     5.261000000
O     6.028000000    -0.311000000     2.659000000
H     5.518000000     0.452000000     2.386000000
H     6.211000000    -0.781000000     1.846000000
O     4.615000000    -0.193000000     7.205000000
H     3.976000000    -0.220000000     6.493000000
H     5.456000000    -0.060000000     6.766000000
O     2.292000000     5.668000000     3.078000000
H     1.501000000     5.707000000     2.540000000
H     2.749000000     4.883000000     2.774000000
O     6.777000000     5.919000000     4.965000000
H     7.150000000     5.468000000     5.723000000
H     5.885000000     6.139000000     5.233000000
O     4.763000000     4.392000000    -0.304000000
H     4.500000000     5.206000000    -0.734000000
H     4.326000000     4.419000000     0.547000000
O     8.192000000     1.894000000    -2.048000000
H     7.283000000     1.592000000    -2.039000000
H     8.421000000     1.993000000    -1.124000000
O     6.015000000     1.957000000    -0.031000000
H     5.276000000     1.669000000     0.504000000
H     5.761000000     2.825000000    -0.344000000
O     6.115000000     6.887000000    -0.955000000
H     5.659000000     7.149000000    -0.156000000
H     6.978000000     6.602000000    -0.655000000
O     3.468000000     0.817000000     4.765000000
H     4.083000000     1.477000000     4.445000000
H     3.331000000     0.235000000     4.017000000
O     6.695000000    -2.042000000     4.799000000
H     7.139000000    -2.811000000     4.441000000
H     6.400000000    -1.556000000     4.029000000
O     6.700000000     3.533000000     6.429000000
H     6.800000000     3.100000000     5.581000000
H     5.757000000     3.670000000     6.518000000
