201
-1257.67300
C     0.062000000    -2.305000000     4.505000000
H     0.236000000    -3.185000000     3.890000000
C    -0.989000000    -1.505000000     4.130000000
C    -1.159000000    -0.267000000     4.779000000
H    -1.904000000     0.393000000     4.340000000
C    -1.932000000    -1.975000000     3.020000000
O    -1.987000000    -3.360000000     2.855000000
H    -1.554000000    -1.544000000     2.081000000
O    -3.224000000    -1.365000000     3.104000000
C    -3.828000000    -0.912000000     1.971000000
C    -3.929000000     0.448000000     1.900000000
H    -3.549000000     1.037000000     2.730000000
C    -4.432000000     1.078000000     0.728000000
O    -4.296000000     2.438000000     0.595000000
C    -4.862000000     0.310000000    -0.381000000
C    -5.340000000     0.886000000    -1.745000000
H    -6.022000000     0.157000000    -2.186000000
C    -4.052000000     1.187000000    -2.532000000
C    -3.592000000     0.124000000    -3.330000000
H    -4.105000000    -0.834000000    -3.351000000
H    -5.891000000     1.829000000    -1.723000000
C    -4.829000000    -1.085000000    -0.183000000
H    -5.235000000    -1.723000000    -0.964000000
C    -4.372000000    -1.713000000     0.968000000
C    -4.190000000    -3.205000000     1.085000000
H    -4.992000000    -3.804000000     0.648000000
H    -4.389000000    -3.436000000     2.133000000
C    -2.897000000    -3.779000000     0.653000000
C    -2.697000000    -4.128000000    -0.693000000
H    -3.530000000    -4.197000000    -1.388000000
C    -1.826000000    -3.799000000     1.548000000
C    -0.583000000    -4.300000000     1.180000000
H     0.160000000    -4.382000000     1.970000000
C    -0.353000000    -4.584000000    -0.141000000
O     0.920000000    -4.834000000    -0.508000000
C     1.683000000    -3.731000000    -1.135000000
C     3.106000000    -3.718000000    -0.523000000
C     4.100000000    -2.893000000    -0.989000000
H     3.813000000    -2.350000000    -1.885000000
C     3.270000000    -4.280000000     0.770000000
H     2.439000000    -4.880000000     1.130000000
O     1.811000000    -4.012000000    -2.592000000
H     1.201000000    -2.753000000    -0.981000000
C    -1.364000000    -4.529000000    -1.109000000
C    -0.983000000    -4.908000000    -2.555000000
H    -1.801000000    -5.331000000    -3.143000000
H    -0.179000000    -5.646000000    -2.533000000
C    -0.528000000    -3.707000000    -3.356000000
C    -1.474000000    -2.824000000    -3.922000000
H    -2.543000000    -3.005000000    -3.852000000
C     0.859000000    -3.407000000    -3.442000000
C     1.227000000    -2.344000000    -4.243000000
H     2.245000000    -1.962000000    -4.210000000
C     0.316000000    -1.357000000    -4.668000000
O     0.824000000    -0.080000000    -5.002000000
C     0.392000000     1.032000000    -4.204000000
C     1.558000000     1.899000000    -3.796000000
C     2.815000000     1.415000000    -3.464000000
H     2.895000000     0.331000000    -3.474000000
C     1.378000000     3.265000000    -3.796000000
H     0.476000000     3.706000000    -4.214000000
O    -0.687000000     1.714000000    -4.806000000
H    -0.050000000     0.606000000    -3.291000000
C    -1.056000000    -1.650000000    -4.526000000
C    -2.087000000    -0.682000000    -5.034000000
H    -2.936000000    -1.277000000    -5.375000000
H    -1.710000000    -0.243000000    -5.960000000
C    -2.495000000     0.358000000    -4.139000000
C    -1.917000000     1.633000000    -4.155000000
C    -2.361000000     2.642000000    -3.270000000
H    -1.845000000     3.594000000    -3.176000000
C    -3.411000000     2.445000000    -2.426000000
O    -3.649000000     3.303000000    -1.375000000
C    -3.131000000     2.965000000    -0.096000000
H    -2.308000000     2.253000000    -0.254000000
C    -2.531000000     4.150000000     0.585000000
C    -2.666000000     4.218000000     2.004000000
H    -3.218000000     3.453000000     2.545000000
C    -1.705000000     5.031000000    -0.106000000
H    -1.527000000     4.974000000    -1.177000000
C    -1.205000000     6.089000000     0.654000000
O    -0.536000000     7.091000000    -0.018000000
C    -1.346000000     6.196000000     2.033000000
H    -0.884000000     7.018000000     2.575000000
C    -1.963000000     5.191000000     2.723000000
O    -1.858000000     5.138000000     4.117000000
C    -2.086000000     4.056000000     4.954000000
C    -1.044000000     3.106000000     5.176000000
H    -0.145000000     3.027000000     4.569000000
C    -3.230000000     4.046000000     5.780000000
H    -3.999000000     4.805000000     5.659000000
C    -3.431000000     3.120000000     6.739000000
H    -4.335000000     3.098000000     7.343000000
C    -2.463000000     2.170000000     6.924000000
H    -2.586000000     1.440000000     7.719000000
C    -1.323000000     2.134000000     6.146000000
O    -0.446000000     1.190000000     6.571000000
C    -0.283000000     0.049000000     5.853000000
C     0.729000000    -0.886000000     6.284000000
H     1.277000000    -0.627000000     7.186000000
C     0.931000000    -2.054000000     5.512000000
O     1.997000000    -2.842000000     5.858000000
C     2.368000000    -3.970000000     5.164000000
C     3.177000000    -3.906000000     4.046000000
H     3.439000000    -2.945000000     3.611000000
C     2.209000000    -5.222000000     5.773000000
H     1.677000000    -5.307000000     6.716000000
C     2.839000000    -6.373000000     5.304000000
H     2.516000000    -7.330000000     5.706000000
C     3.775000000    -6.243000000     4.330000000
H     4.453000000    -7.000000000     3.944000000
C     3.850000000    -5.038000000     3.596000000
O     4.750000000    -4.905000000     2.537000000
C     4.484000000    -4.145000000     1.419000000
C     5.537000000    -3.447000000     0.861000000
H     6.497000000    -3.553000000     1.359000000
C     5.351000000    -2.820000000    -0.381000000
O     6.432000000    -2.302000000    -0.991000000
C     6.367000000    -1.460000000    -2.014000000
C     5.715000000    -0.256000000    -1.873000000
H     5.393000000     0.183000000    -0.932000000
C     6.840000000    -1.839000000    -3.283000000
H     7.438000000    -2.746000000    -3.305000000
C     6.610000000    -1.043000000    -4.386000000
H     7.031000000    -1.221000000    -5.372000000
C     5.908000000     0.192000000    -4.200000000
H     5.773000000     0.868000000    -5.040000000
C     5.502000000     0.567000000    -2.908000000
O     5.108000000     1.874000000    -2.679000000
C     3.844000000     2.322000000    -3.090000000
C     3.636000000     3.639000000    -2.978000000
H     4.498000000     4.265000000    -2.765000000
C     2.438000000     4.112000000    -3.404000000
O     2.335000000     5.495000000    -3.393000000
C     1.172000000     6.185000000    -3.081000000
C     0.441000000     6.833000000    -3.987000000
H     0.834000000     6.849000000    -5.000000000
C    -0.726000000     7.433000000    -3.602000000
H    -1.408000000     7.874000000    -4.324000000
C    -1.063000000     7.515000000    -2.239000000
H    -2.001000000     8.019000000    -2.020000000
C    -0.194000000     7.045000000    -1.299000000
C     0.894000000     6.288000000    -1.709000000
H     1.429000000     5.825000000    -0.884000000
O     8.278000000     3.661000000    -2.408000000
H     7.500000000     3.393000000    -2.896000000
H     7.960000000     3.824000000    -1.520000000
O     3.894000000     4.381000000     3.261000000
H     3.336000000     5.088000000     2.937000000
H     3.963000000     3.774000000     2.523000000
O     5.953000000     6.363000000    -2.212000000
H     6.366000000     6.281000000    -1.353000000
H     6.411000000     5.725000000    -2.760000000
O     6.568000000    -2.524000000     4.428000000
H     5.869000000    -2.023000000     4.008000000
H     6.149000000    -2.931000000     5.186000000
O     6.364000000     1.835000000     3.925000000
H     5.914000000     1.543000000     3.132000000
H     6.901000000     2.573000000     3.637000000
O    10.691000000    -0.592000000     2.307000000
H    10.108000000     0.133000000     2.534000000
H    10.477000000    -0.795000000     1.396000000
O     5.644000000     2.417000000     6.717000000
H     6.461000000     2.625000000     7.170000000
H     5.914000000     1.881000000     5.971000000
O     9.572000000     2.033000000     2.516000000
H     9.785000000     2.689000000     3.179000000
H     8.806000000     2.387000000     2.065000000
O     6.866000000     5.563000000     0.414000000
H     7.079000000     4.666000000     0.672000000
H     7.416000000     6.111000000     0.974000000
O     7.096000000     2.989000000     1.053000000
H     6.156000000     3.014000000     1.234000000
H     7.290000000     2.061000000     0.919000000
O     7.380000000    -0.222000000     5.891000000
H     7.165000000     0.351000000     5.155000000
H     7.079000000    -1.088000000     5.616000000
O     8.227000000     6.760000000     2.500000000
H     7.523000000     6.330000000     2.986000000
H     8.247000000     7.651000000     2.848000000
O     4.153000000     5.393000000     0.550000000
H     4.536000000     4.564000000     0.837000000
H     4.906000000     5.936000000     0.316000000
O     7.585000000     0.125000000     0.934000000
H     6.653000000     0.037000000     1.133000000
H     7.905000000    -0.775000000     0.883000000
O     8.847000000    -2.273000000     0.511000000
H     8.073000000    -2.394000000    -0.040000000
H     9.159000000    -3.161000000     0.684000000
O     3.236000000     3.092000000     5.768000000
H     3.365000000     3.235000000     4.830000000
H     4.092000000     2.806000000     6.086000000
O     1.998000000     6.153000000     1.943000000
H     1.537000000     6.951000000     1.680000000
H     2.670000000     6.033000000     1.272000000
O     4.372000000    -0.706000000     3.628000000
H     4.693000000    -0.260000000     2.845000000
H     3.547000000    -0.266000000     3.833000000
O     6.461000000     5.097000000     4.027000000
H     5.568000000     4.988000000     3.700000000
H     6.370000000     5.094000000     4.979000000
