201
-1251.13350
C    -0.037000000    -3.657000000     4.201000000
H     0.025000000    -4.577000000     3.626000000
C    -1.013000000    -2.680000000     3.959000000
C    -1.101000000    -1.484000000     4.717000000
H    -1.845000000    -0.714000000     4.531000000
C    -1.859000000    -2.811000000     2.697000000
O    -1.776000000    -4.071000000     2.007000000
H    -1.643000000    -1.983000000     2.005000000
O    -3.248000000    -2.576000000     3.020000000
C    -3.918000000    -1.767000000     2.118000000
C    -4.062000000    -0.380000000     2.401000000
H    -3.615000000     0.042000000     3.298000000
C    -4.456000000     0.519000000     1.379000000
O    -4.289000000     1.829000000     1.665000000
C    -4.868000000     0.028000000     0.125000000
C    -5.421000000     1.008000000    -0.896000000
H    -6.032000000     0.430000000    -1.592000000
C    -4.320000000     1.532000000    -1.802000000
C    -3.947000000     0.926000000    -2.968000000
H    -4.588000000     0.127000000    -3.332000000
H    -5.905000000     1.841000000    -0.382000000
C    -4.930000000    -1.332000000    -0.032000000
H    -5.372000000    -1.751000000    -0.932000000
C    -4.269000000    -2.185000000     0.856000000
C    -4.245000000    -3.658000000     0.424000000
H    -5.110000000    -3.777000000    -0.233000000
H    -4.398000000    -4.314000000     1.283000000
C    -2.882000000    -3.951000000    -0.183000000
C    -2.711000000    -3.930000000    -1.618000000
H    -3.566000000    -3.648000000    -2.227000000
C    -1.764000000    -4.113000000     0.614000000
C    -0.534000000    -4.414000000     0.092000000
H     0.335000000    -4.385000000     0.745000000
C    -0.375000000    -4.397000000    -1.309000000
O     0.958000000    -4.498000000    -1.684000000
C     1.574000000    -3.296000000    -2.188000000
C     2.964000000    -3.133000000    -1.646000000
C     4.044000000    -2.497000000    -2.321000000
H     3.921000000    -2.332000000    -3.389000000
C     3.159000000    -3.445000000    -0.298000000
H     2.364000000    -3.833000000     0.333000000
O     1.445000000    -3.203000000    -3.567000000
H     1.172000000    -2.390000000    -1.711000000
C    -1.437000000    -4.206000000    -2.160000000
C    -1.191000000    -4.139000000    -3.670000000
H    -2.091000000    -4.521000000    -4.156000000
H    -0.441000000    -4.851000000    -4.019000000
C    -0.888000000    -2.684000000    -4.071000000
C    -1.823000000    -1.725000000    -4.404000000
H    -2.859000000    -2.055000000    -4.417000000
C     0.450000000    -2.325000000    -4.048000000
C     0.839000000    -1.018000000    -4.335000000
H     1.901000000    -0.807000000    -4.423000000
C    -0.099000000    -0.095000000    -4.720000000
O     0.363000000     1.237000000    -4.865000000
C     0.261000000     1.981000000    -3.657000000
C     1.564000000     2.687000000    -3.404000000
C     2.717000000     2.385000000    -4.061000000
H     2.688000000     1.549000000    -4.755000000
C     1.593000000     3.654000000    -2.467000000
H     0.669000000     3.832000000    -1.922000000
O    -0.879000000     2.931000000    -3.779000000
H    -0.008000000     1.394000000    -2.766000000
C    -1.454000000    -0.428000000    -4.734000000
C    -2.576000000     0.655000000    -5.020000000
H    -3.451000000     0.143000000    -5.424000000
H    -2.155000000     1.355000000    -5.745000000
C    -2.935000000     1.388000000    -3.784000000
C    -2.072000000     2.421000000    -3.275000000
C    -2.434000000     2.982000000    -2.045000000
H    -1.707000000     3.706000000    -1.687000000
C    -3.614000000     2.627000000    -1.387000000
O    -3.864000000     3.232000000    -0.143000000
C    -3.218000000     2.612000000     1.027000000
H    -2.479000000     1.893000000     0.644000000
C    -2.501000000     3.561000000     1.966000000
C    -2.411000000     3.242000000     3.338000000
H    -2.816000000     2.325000000     3.757000000
C    -1.896000000     4.705000000     1.478000000
H    -1.875000000     4.787000000     0.394000000
C    -1.321000000     5.589000000     2.314000000
O    -0.712000000     6.739000000     1.919000000
C    -1.343000000     5.339000000     3.681000000
H    -0.968000000     6.046000000     4.417000000
C    -1.872000000     4.141000000     4.164000000
O    -1.999000000     4.029000000     5.524000000
C    -2.022000000     2.852000000     6.211000000
C    -0.949000000     1.960000000     6.118000000
H    -0.169000000     2.135000000     5.382000000
C    -3.089000000     2.536000000     7.117000000
H    -3.849000000     3.275000000     7.358000000
C    -3.144000000     1.225000000     7.728000000
H    -4.049000000     0.894000000     8.232000000
C    -2.169000000     0.302000000     7.503000000
H    -2.213000000    -0.752000000     7.766000000
C    -1.083000000     0.677000000     6.689000000
O     0.010000000    -0.203000000     6.491000000
C    -0.158000000    -1.335000000     5.762000000
C     0.706000000    -2.352000000     6.077000000
H     1.500000000    -2.132000000     6.786000000
C     0.815000000    -3.497000000     5.287000000
O     1.888000000    -4.296000000     5.471000000
C     2.603000000    -4.713000000     4.436000000
C     3.274000000    -3.817000000     3.535000000
H     3.185000000    -2.747000000     3.706000000
C     2.697000000    -6.075000000     4.168000000
H     2.073000000    -6.815000000     4.662000000
C     3.402000000    -6.589000000     3.052000000
H     3.426000000    -7.647000000     2.805000000
C     4.106000000    -5.691000000     2.207000000
H     4.673000000    -6.096000000     1.373000000
C     4.024000000    -4.317000000     2.442000000
O     4.606000000    -3.358000000     1.680000000
C     4.384000000    -3.138000000     0.318000000
C     5.311000000    -2.419000000    -0.335000000
H     6.223000000    -2.052000000     0.128000000
C     5.258000000    -2.187000000    -1.693000000
O     6.293000000    -1.441000000    -2.333000000
C     6.022000000    -0.689000000    -3.436000000
C     5.586000000     0.616000000    -3.416000000
H     5.215000000     1.048000000    -2.490000000
C     6.612000000    -1.134000000    -4.660000000
H     7.241000000    -2.020000000    -4.702000000
C     6.621000000    -0.397000000    -5.809000000
H     7.115000000    -0.835000000    -6.673000000
C     6.110000000     0.878000000    -5.793000000
H     6.231000000     1.577000000    -6.616000000
C     5.554000000     1.379000000    -4.590000000
O     5.096000000     2.689000000    -4.450000000
C     3.911000000     3.123000000    -3.850000000
C     3.879000000     4.089000000    -2.870000000
H     4.778000000     4.621000000    -2.569000000
C     2.747000000     4.323000000    -2.121000000
O     2.773000000     5.439000000    -1.235000000
C     1.628000000     6.162000000    -0.894000000
C     1.004000000     6.846000000    -1.917000000
H     1.465000000     6.820000000    -2.901000000
C    -0.206000000     7.516000000    -1.662000000
H    -0.742000000     8.041000000    -2.449000000
C    -0.738000000     7.477000000    -0.327000000
H    -1.669000000     8.030000000    -0.226000000
C    -0.107000000     6.851000000     0.713000000
C     1.137000000     6.219000000     0.440000000
H     1.607000000     5.661000000     1.247000000
O     7.390000000     2.443000000     0.616000000
H     7.247000000     1.533000000     0.874000000
H     6.560000000     2.880000000     0.808000000
O     4.465000000    -1.898000000     6.135000000
H     3.967000000    -2.678000000     6.380000000
H     5.171000000    -1.853000000     6.780000000
O     7.070000000    -3.231000000     4.070000000
H     7.572000000    -3.892000000     3.592000000
H     6.158000000    -3.414000000     3.844000000
O     6.012000000     5.178000000    -0.324000000
H     5.200000000     4.672000000    -0.298000000
H     6.590000000     4.672000000    -0.896000000
O     5.565000000     4.556000000     6.562000000
H     6.045000000     5.131000000     7.158000000
H     5.733000000     4.919000000     5.692000000
O     9.396000000     1.769000000     4.329000000
H     9.000000000     0.907000000     4.207000000
H     8.684000000     2.386000000     4.162000000
O     3.068000000     0.371000000     6.488000000
H     3.322000000    -0.552000000     6.493000000
H     3.269000000     0.670000000     5.601000000
O     8.096000000    -0.658000000     4.073000000
H     7.562000000    -0.064000000     4.601000000
H     7.661000000    -1.507000000     4.155000000
O     4.352000000     2.609000000    -0.187000000
H     4.538000000     2.080000000     0.588000000
H     3.468000000     2.350000000    -0.448000000
O     5.430000000     5.341000000     3.703000000
H     5.483000000     6.188000000     3.260000000
H     4.887000000     4.803000000     3.128000000
O     1.814000000     1.966000000     8.432000000
H     2.046000000     1.242000000     7.851000000
H     2.470000000     2.639000000     8.250000000
O     6.886000000     0.009000000     1.622000000
H     5.979000000     0.135000000     1.901000000
H     7.333000000    -0.319000000     2.402000000
O     7.934000000     4.311000000     3.486000000
H     7.057000000     4.689000000     3.422000000
H     8.327000000     4.469000000     2.628000000
O     3.468000000     3.994000000     2.255000000
H     3.775000000     3.134000000     1.967000000
H     2.579000000     3.837000000     2.572000000
O     2.046000000     3.340000000     5.322000000
H     1.821000000     2.886000000     6.134000000
H     2.613000000     2.727000000     4.854000000
O     6.042000000     1.422000000     4.589000000
H     5.993000000     2.371000000     4.471000000
H     5.282000000     1.083000000     4.117000000
O     3.124000000     6.432000000     4.910000000
H     4.031000000     6.321000000     4.624000000
H     2.738000000     5.560000000     4.826000000
O     5.823000000     1.926000000     7.539000000
H     5.683000000     2.865000000     7.412000000
H     5.820000000     1.561000000     6.654000000
O     8.790000000    -0.152000000    -0.669000000
H     9.507000000     0.121000000    -0.097000000
H     8.094000000    -0.421000000    -0.069000000
