201
-1230.44096
C    -4.727000000     1.953000000    -1.878000000
H    -4.282000000     2.716000000    -2.511000000
C    -4.316000000     1.888000000    -0.501000000
C    -4.895000000     0.822000000     0.291000000
H    -4.589000000     0.537000000     1.294000000
C    -3.181000000     2.699000000     0.023000000
O    -3.089000000     3.919000000    -0.742000000
H    -2.225000000     2.163000000    -0.063000000
O    -3.541000000     3.155000000     1.348000000
C    -2.514000000     3.172000000     2.299000000
C    -2.450000000     2.123000000     3.175000000
H    -3.094000000     1.251000000     3.091000000
C    -1.412000000     1.997000000     4.090000000
O    -1.390000000     0.853000000     4.889000000
C    -0.280000000     2.895000000     4.048000000
C     0.858000000     2.664000000     4.941000000
H     1.467000000     3.558000000     5.095000000
C     1.906000000     1.685000000     4.326000000
C     2.944000000     2.241000000     3.591000000
H     2.993000000     3.326000000     3.543000000
H     0.511000000     2.389000000     5.939000000
C    -0.315000000     3.879000000     3.109000000
H     0.646000000     4.379000000     3.015000000
C    -1.415000000     4.065000000     2.218000000
C    -1.422000000     5.236000000     1.161000000
H    -0.704000000     5.958000000     1.555000000
H    -2.377000000     5.765000000     1.187000000
C    -0.954000000     4.782000000    -0.196000000
C     0.409000000     4.878000000    -0.507000000
H     1.025000000     5.327000000     0.268000000
C    -1.823000000     4.228000000    -1.117000000
C    -1.319000000     3.815000000    -2.307000000
H    -1.998000000     3.252000000    -2.943000000
C     0.044000000     3.856000000    -2.610000000
O     0.404000000     3.061000000    -3.655000000
C     1.041000000     1.828000000    -3.314000000
C     0.614000000     0.734000000    -4.228000000
C     1.453000000    -0.329000000    -4.456000000
H     2.467000000    -0.415000000    -4.076000000
C    -0.697000000     0.708000000    -4.759000000
H    -1.407000000     1.508000000    -4.568000000
O     2.491000000     2.000000000    -3.346000000
H     0.727000000     1.648000000    -2.274000000
C     0.963000000     4.398000000    -1.698000000
C     2.495000000     4.492000000    -1.853000000
H     2.932000000     5.309000000    -1.276000000
H     2.746000000     4.788000000    -2.874000000
C     3.180000000     3.260000000    -1.395000000
C     3.757000000     3.263000000    -0.109000000
H     3.727000000     4.210000000     0.425000000
C     3.169000000     2.097000000    -2.148000000
C     3.912000000     0.935000000    -1.658000000
H     3.980000000     0.022000000    -2.245000000
C     4.502000000     1.007000000    -0.389000000
O     5.092000000    -0.081000000     0.127000000
C     4.137000000    -0.997000000     0.825000000
C     4.285000000    -2.433000000     0.349000000
C     4.831000000    -2.628000000    -0.901000000
H     5.107000000    -1.795000000    -1.542000000
C     3.891000000    -3.487000000     1.056000000
H     3.272000000    -3.306000000     1.931000000
O     4.386000000    -0.837000000     2.215000000
H     3.127000000    -0.626000000     0.594000000
C     4.378000000     2.127000000     0.419000000
C     4.883000000     2.021000000     1.891000000
H     5.180000000     3.008000000     2.251000000
H     5.796000000     1.428000000     1.984000000
C     3.840000000     1.461000000     2.846000000
C     3.635000000     0.063000000     2.894000000
C     2.613000000    -0.531000000     3.682000000
H     2.563000000    -1.617000000     3.720000000
C     1.764000000     0.291000000     4.397000000
O     0.703000000    -0.233000000     5.032000000
C    -0.529000000    -0.185000000     4.298000000
H    -0.436000000    -0.067000000     3.208000000
C    -1.287000000    -1.493000000     4.465000000
C    -2.651000000    -1.575000000     4.367000000
H    -3.206000000    -0.646000000     4.475000000
C    -0.576000000    -2.639000000     4.381000000
H     0.510000000    -2.658000000     4.441000000
C    -1.150000000    -3.908000000     4.390000000
O    -0.424000000    -4.971000000     3.884000000
C    -2.529000000    -3.935000000     4.340000000
H    -3.041000000    -4.876000000     4.161000000
C    -3.301000000    -2.797000000     4.312000000
O    -4.709000000    -2.890000000     4.315000000
C    -5.560000000    -2.008000000     3.744000000
C    -5.642000000    -1.960000000     2.331000000
H    -4.988000000    -2.545000000     1.690000000
C    -6.434000000    -1.237000000     4.503000000
H    -6.378000000    -1.488000000     5.560000000
C    -7.352000000    -0.372000000     3.863000000
H    -8.013000000     0.223000000     4.489000000
C    -7.381000000    -0.306000000     2.485000000
H    -8.023000000     0.436000000     2.018000000
C    -6.566000000    -1.126000000     1.776000000
O    -6.522000000    -0.998000000     0.340000000
C    -5.927000000     0.126000000    -0.248000000
C    -6.308000000     0.244000000    -1.559000000
H    -7.061000000    -0.423000000    -1.971000000
C    -5.695000000     1.142000000    -2.414000000
O    -6.044000000     1.335000000    -3.732000000
C    -5.182000000     1.431000000    -4.786000000
C    -4.211000000     0.437000000    -5.012000000
H    -4.039000000    -0.345000000    -4.276000000
C    -5.297000000     2.428000000    -5.754000000
H    -6.099000000     3.161000000    -5.788000000
C    -4.384000000     2.499000000    -6.807000000
H    -4.460000000     3.301000000    -7.536000000
C    -3.355000000     1.619000000    -6.996000000
H    -2.563000000     1.740000000    -7.731000000
C    -3.293000000     0.569000000    -6.086000000
O    -2.314000000    -0.360000000    -6.155000000
C    -1.078000000    -0.391000000    -5.524000000
C    -0.183000000    -1.436000000    -5.788000000
H    -0.512000000    -2.323000000    -6.322000000
C     1.118000000    -1.398000000    -5.324000000
O     1.989000000    -2.500000000    -5.493000000
C     3.338000000    -2.599000000    -5.124000000
C     3.730000000    -3.305000000    -3.964000000
H     3.021000000    -3.668000000    -3.225000000
C     4.270000000    -2.121000000    -5.990000000
H     3.872000000    -1.533000000    -6.813000000
C     5.573000000    -2.494000000    -5.841000000
H     6.329000000    -2.136000000    -6.536000000
C     6.052000000    -3.213000000    -4.736000000
H     7.113000000    -3.340000000    -4.537000000
C     5.124000000    -3.523000000    -3.731000000
O     5.568000000    -4.140000000    -2.581000000
C     4.958000000    -3.894000000    -1.402000000
C     4.589000000    -4.991000000    -0.653000000
H     4.809000000    -5.975000000    -1.059000000
C     3.996000000    -4.779000000     0.566000000
O     3.497000000    -5.854000000     1.268000000
C     2.869000000    -5.794000000     2.506000000
C     3.663000000    -5.686000000     3.628000000
H     4.734000000    -5.769000000     3.465000000
C     3.079000000    -5.167000000     4.850000000
H     3.755000000    -4.947000000     5.672000000
C     1.760000000    -4.867000000     4.900000000
H     1.365000000    -4.574000000     5.870000000
C     0.955000000    -5.075000000     3.798000000
C     1.565000000    -5.500000000     2.562000000
H     1.027000000    -5.628000000     1.626000000
O    -0.762000000    -7.602000000    -5.420000000
H    -0.693000000    -6.680000000    -5.171000000
H    -1.602000000    -7.885000000    -5.058000000
O    -0.973000000    -6.101000000    -9.287000000
H    -0.743000000    -6.996000000    -9.035000000
H    -1.564000000    -5.802000000    -8.595000000
O    -5.638000000    -5.938000000    -3.743000000
H    -5.836000000    -5.143000000    -3.248000000
H    -4.683000000    -5.953000000    -3.800000000
O    -4.390000000    -3.161000000    -4.154000000
H    -3.720000000    -3.829000000    -4.298000000
H    -4.705000000    -3.325000000    -3.265000000
O     3.503000000    -6.160000000    -4.450000000
H     3.562000000    -6.365000000    -5.384000000
H     2.726000000    -5.607000000    -4.376000000
O     1.622000000    -2.348000000    -8.867000000
H     2.259000000    -2.804000000    -9.417000000
H     1.445000000    -2.957000000    -8.150000000
O     1.529000000    -8.081000000    -8.403000000
H     2.237000000    -7.913000000    -7.781000000
H     1.975000000    -8.253000000    -9.233000000
O    -2.065000000    -4.474000000    -7.204000000
H    -2.887000000    -4.723000000    -6.781000000
H    -1.406000000    -4.565000000    -6.515000000
O    -2.866000000    -2.104000000    -8.303000000
H    -3.554000000    -1.844000000    -7.690000000
H    -2.570000000    -2.957000000    -7.983000000
O     4.086000000    -5.000000000    -8.464000000
H     3.222000000    -5.158000000    -8.082000000
H     3.944000000    -4.291000000    -9.092000000
O     1.045000000    -4.778000000    -7.296000000
H     0.855000000    -4.714000000    -6.361000000
H     0.274000000    -5.206000000    -7.669000000
O    -3.819000000    -7.970000000    -5.907000000
H    -3.539000000    -8.253000000    -6.777000000
H    -4.275000000    -7.142000000    -6.059000000
O    -1.614000000    -5.738000000     0.156000000
H    -2.570000000    -5.770000000     0.104000000
H    -1.370000000    -4.988000000    -0.386000000
O     1.589000000    -9.038000000    -5.270000000
H     2.320000000    -8.527000000    -5.618000000
H     0.844000000    -8.438000000    -5.297000000
O    -2.267000000    -7.777000000    -2.561000000
H    -1.544000000    -8.400000000    -2.631000000
H    -2.326000000    -7.584000000    -1.625000000
O     5.000000000    -7.564000000    -2.771000000
H     4.770000000    -8.405000000    -3.166000000
H     4.626000000    -6.911000000    -3.363000000
O     1.607000000    -6.908000000    -1.908000000
H     1.460000000    -6.486000000    -2.755000000
H     2.557000000    -7.017000000    -1.857000000
O    -3.028000000    -5.427000000    -3.853000000
H    -2.150000000    -5.134000000    -4.096000000
H    -2.894000000    -6.300000000    -3.483000000
O     0.057000000    -9.284000000    -2.419000000
H     0.568000000    -8.515000000    -2.166000000
H     0.258000000    -9.410000000    -3.346000000
