201
-1230.60679
C     0.535000000    -3.344000000     3.897000000
H     0.804000000    -4.029000000     3.097000000
C    -0.732000000    -2.764000000     3.757000000
C    -1.003000000    -1.762000000     4.643000000
H    -2.002000000    -1.337000000     4.593000000
C    -1.653000000    -3.054000000     2.567000000
O    -1.489000000    -4.431000000     2.107000000
H    -1.367000000    -2.395000000     1.734000000
O    -3.046000000    -2.826000000     2.823000000
C    -3.798000000    -2.077000000     1.928000000
C    -3.960000000    -0.693000000     2.115000000
H    -3.723000000    -0.253000000     3.080000000
C    -4.404000000     0.123000000     1.104000000
O    -4.523000000     1.471000000     1.452000000
C    -4.856000000    -0.352000000    -0.133000000
C    -5.440000000     0.544000000    -1.169000000
H    -6.151000000    -0.099000000    -1.692000000
C    -4.424000000     1.282000000    -1.986000000
C    -3.943000000     0.727000000    -3.205000000
H    -4.418000000    -0.203000000    -3.508000000
H    -5.970000000     1.324000000    -0.619000000
C    -4.556000000    -1.712000000    -0.383000000
H    -4.595000000    -2.096000000    -1.399000000
C    -4.045000000    -2.529000000     0.640000000
C    -3.959000000    -3.985000000     0.288000000
H    -4.642000000    -4.267000000    -0.516000000
H    -4.299000000    -4.576000000     1.141000000
C    -2.526000000    -4.231000000    -0.152000000
C    -2.323000000    -4.113000000    -1.532000000
H    -3.116000000    -3.763000000    -2.187000000
C    -1.477000000    -4.554000000     0.717000000
C    -0.244000000    -4.647000000     0.137000000
H     0.629000000    -4.932000000     0.719000000
C    -0.010000000    -4.482000000    -1.192000000
O     1.304000000    -4.463000000    -1.637000000
C     1.982000000    -3.236000000    -1.990000000
C     3.498000000    -3.353000000    -1.615000000
C     4.471000000    -2.769000000    -2.479000000
H     4.214000000    -2.380000000    -3.461000000
C     3.910000000    -3.691000000    -0.378000000
H     3.261000000    -4.051000000     0.416000000
O     1.846000000    -2.965000000    -3.421000000
H     1.549000000    -2.372000000    -1.466000000
C    -1.029000000    -4.243000000    -2.081000000
C    -0.804000000    -4.049000000    -3.586000000
H    -1.775000000    -4.272000000    -4.033000000
H    -0.121000000    -4.762000000    -4.052000000
C    -0.464000000    -2.638000000    -3.947000000
C    -1.495000000    -1.801000000    -4.334000000
H    -2.525000000    -2.142000000    -4.252000000
C     0.818000000    -2.169000000    -3.873000000
C     1.102000000    -0.827000000    -4.118000000
H     2.130000000    -0.524000000    -3.934000000
C     0.066000000     0.055000000    -4.446000000
O     0.413000000     1.357000000    -4.678000000
C     0.056000000     2.181000000    -3.597000000
C     1.166000000     3.116000000    -3.196000000
C     2.477000000     2.569000000    -3.024000000
H     2.632000000     1.504000000    -3.178000000
C     0.985000000     4.468000000    -2.955000000
H     0.042000000     4.978000000    -3.135000000
O    -1.159000000     2.913000000    -4.052000000
H    -0.213000000     1.655000000    -2.669000000
C    -1.208000000    -0.443000000    -4.667000000
C    -2.317000000     0.461000000    -5.122000000
H    -3.054000000    -0.091000000    -5.709000000
H    -1.872000000     1.162000000    -5.831000000
C    -2.877000000     1.233000000    -3.938000000
C    -2.297000000     2.411000000    -3.449000000
C    -2.743000000     3.034000000    -2.267000000
H    -2.372000000     3.998000000    -1.927000000
C    -3.762000000     2.458000000    -1.533000000
O    -4.019000000     3.051000000    -0.302000000
C    -3.498000000     2.326000000     0.844000000
H    -2.634000000     1.790000000     0.425000000
C    -2.938000000     3.266000000     1.907000000
C    -3.107000000     3.116000000     3.254000000
H    -3.841000000     2.425000000     3.659000000
C    -1.997000000     4.131000000     1.389000000
H    -1.624000000     4.073000000     0.370000000
C    -1.333000000     5.044000000     2.279000000
O    -0.308000000     5.870000000     1.877000000
C    -1.614000000     4.960000000     3.617000000
H    -1.130000000     5.692000000     4.259000000
C    -2.472000000     3.992000000     4.105000000
O    -2.628000000     3.808000000     5.416000000
C    -2.692000000     2.576000000     5.955000000
C    -1.598000000     1.761000000     5.915000000
H    -0.677000000     2.098000000     5.447000000
C    -3.864000000     2.162000000     6.468000000
H    -4.778000000     2.734000000     6.331000000
C    -3.980000000     0.825000000     6.969000000
H    -4.915000000     0.352000000     7.258000000
C    -2.917000000    -0.046000000     6.937000000
H    -3.020000000    -1.092000000     7.212000000
C    -1.723000000     0.459000000     6.363000000
O    -0.522000000    -0.281000000     6.387000000
C    -0.156000000    -1.340000000     5.658000000
C     1.082000000    -1.879000000     5.735000000
H     1.862000000    -1.502000000     6.390000000
C     1.439000000    -2.866000000     4.870000000
O     2.685000000    -3.401000000     4.983000000
C     3.222000000    -4.273000000     4.061000000
C     4.081000000    -3.782000000     3.189000000
H     4.365000000    -2.734000000     3.241000000
C     2.894000000    -5.634000000     4.097000000
H     2.171000000    -6.009000000     4.817000000
C     3.443000000    -6.523000000     3.117000000
H     3.108000000    -7.556000000     3.067000000
C     4.408000000    -5.976000000     2.259000000
H     4.940000000    -6.617000000     1.561000000
C     4.736000000    -4.615000000     2.288000000
O     5.685000000    -4.114000000     1.339000000
C     5.251000000    -3.628000000     0.052000000
C     6.208000000    -3.103000000    -0.854000000
H     7.242000000    -3.034000000    -0.526000000
C     5.811000000    -2.579000000    -2.073000000
O     6.665000000    -1.820000000    -2.808000000
C     6.394000000    -0.459000000    -3.132000000
C     5.602000000     0.428000000    -2.350000000
H     5.235000000     0.171000000    -1.360000000
C     6.939000000    -0.063000000    -4.353000000
H     7.619000000    -0.712000000    -4.899000000
C     6.702000000     1.206000000    -4.815000000
H     7.178000000     1.566000000    -5.723000000
C     5.964000000     2.087000000    -4.021000000
H     5.817000000     3.103000000    -4.379000000
C     5.332000000     1.661000000    -2.853000000
O     4.708000000     2.673000000    -2.105000000
C     3.537000000     3.314000000    -2.568000000
C     3.277000000     4.670000000    -2.290000000
H     4.111000000     5.278000000    -1.947000000
C     2.008000000     5.246000000    -2.471000000
O     1.774000000     6.593000000    -2.316000000
C     0.731000000     6.846000000    -1.476000000
C    -0.257000000     7.731000000    -1.844000000
H    -0.300000000     8.053000000    -2.881000000
C    -1.367000000     7.911000000    -0.990000000
H    -2.246000000     8.477000000    -1.289000000
C    -1.255000000     7.431000000     0.328000000
H    -2.096000000     7.683000000     0.969000000
C    -0.226000000     6.616000000     0.706000000
C     0.793000000     6.367000000    -0.173000000
H     1.613000000     5.720000000     0.128000000
O     7.494000000     1.392000000    -0.110000000
H     8.012000000     0.588000000    -0.089000000
H     7.061000000     1.421000000     0.744000000
O     2.807000000     4.190000000     5.678000000
H     2.165000000     4.415000000     6.351000000
H     3.333000000     4.982000000     5.573000000
O     8.883000000    -2.480000000     2.531000000
H     8.716000000    -3.117000000     3.225000000
H     8.247000000    -1.782000000     2.687000000
O     3.696000000     7.614000000     0.120000000
H     4.036000000     6.730000000    -0.019000000
H     3.622000000     7.695000000     1.071000000
O     5.001000000     5.171000000     0.380000000
H     4.778000000     4.535000000     1.060000000
H     5.635000000     4.716000000    -0.174000000
O     5.375000000    -0.594000000     5.013000000
H     4.694000000     0.032000000     4.768000000
H     5.674000000    -0.961000000     4.180000000
O     4.469000000     1.852000000     7.724000000
H     4.975000000     2.004000000     6.925000000
H     5.062000000     1.361000000     8.293000000
O     9.726000000     2.033000000    -1.279000000
H     9.935000000     1.226000000    -1.748000000
H     8.864000000     1.872000000    -0.896000000
O     6.512000000     4.625000000     3.135000000
H     7.349000000     4.614000000     2.672000000
H     6.102000000     3.790000000     2.909000000
O     4.681000000     2.424000000     4.678000000
H     4.557000000     2.666000000     3.760000000
H     4.298000000     3.150000000     5.171000000
O     6.627000000    -1.054000000     2.305000000
H     6.121000000    -1.584000000     1.689000000
H     6.314000000    -0.161000000     2.165000000
O     8.806000000     4.219000000     1.815000000
H     8.951000000     3.404000000     2.296000000
H     9.653000000     4.664000000     1.836000000
O     7.500000000    -0.128000000     6.645000000
H     8.120000000    -0.777000000     6.312000000
H     6.752000000    -0.185000000     6.050000000
O     6.596000000     7.159000000     1.694000000
H     6.812000000     6.428000000     2.273000000
H     5.949000000     6.802000000     1.087000000
O     7.280000000     3.967000000    -0.681000000
H     7.750000000     4.409000000     0.027000000
H     7.354000000     3.036000000    -0.472000000
O     2.682000000     4.606000000     3.038000000
H     2.543000000     4.235000000     3.910000000
H     3.138000000     3.917000000     2.555000000
O     9.895000000     0.584000000     2.542000000
H     9.410000000     0.250000000     1.788000000
H     9.274000000     1.158000000     2.990000000
O     6.356000000     5.282000000     5.588000000
H     7.014000000     4.721000000     5.998000000
H     6.339000000     5.002000000     4.672000000
O     8.044000000     2.025000000     3.954000000
H     7.253000000     1.807000000     3.461000000
H     7.720000000     2.376000000     4.784000000
