201
-1237.17702
C     0.346000000    -4.180000000     2.787000000
H     0.498000000    -4.725000000     1.859000000
C    -0.779000000    -3.349000000     2.949000000
C    -0.940000000    -2.566000000     4.096000000
H    -1.691000000    -1.780000000     4.060000000
C    -1.761000000    -3.142000000     1.840000000
O    -2.173000000    -4.289000000     1.101000000
H    -1.327000000    -2.432000000     1.120000000
O    -3.048000000    -2.676000000     2.381000000
C    -3.620000000    -1.569000000     1.803000000
C    -3.436000000    -0.324000000     2.339000000
H    -2.925000000    -0.185000000     3.289000000
C    -3.859000000     0.819000000     1.655000000
O    -3.636000000     1.995000000     2.300000000
C    -4.625000000     0.670000000     0.445000000
C    -5.120000000     1.938000000    -0.271000000
H    -5.971000000     1.618000000    -0.876000000
C    -4.017000000     2.606000000    -1.065000000
C    -3.849000000     2.218000000    -2.383000000
H    -4.330000000     1.359000000    -2.842000000
H    -5.599000000     2.678000000     0.373000000
C    -4.885000000    -0.588000000     0.002000000
H    -5.386000000    -0.734000000    -0.951000000
C    -4.448000000    -1.769000000     0.672000000
C    -4.695000000    -3.116000000    -0.065000000
H    -5.649000000    -3.035000000    -0.591000000
H    -4.835000000    -3.892000000     0.690000000
C    -3.501000000    -3.548000000    -0.892000000
C    -3.431000000    -3.244000000    -2.213000000
H    -4.239000000    -2.621000000    -2.588000000
C    -2.369000000    -4.200000000    -0.300000000
C    -1.315000000    -4.524000000    -1.113000000
H    -0.410000000    -4.917000000    -0.657000000
C    -1.283000000    -4.195000000    -2.453000000
O    -0.065000000    -4.359000000    -3.114000000
C     0.768000000    -3.182000000    -3.107000000
C     2.194000000    -3.462000000    -2.802000000
C     3.170000000    -2.533000000    -3.212000000
H     2.861000000    -1.587000000    -3.649000000
C     2.558000000    -4.609000000    -2.077000000
H     1.833000000    -5.380000000    -1.831000000
O     0.665000000    -2.569000000    -4.372000000
H     0.230000000    -2.568000000    -2.370000000
C    -2.342000000    -3.514000000    -2.985000000
C    -2.344000000    -2.849000000    -4.358000000
H    -3.371000000    -2.827000000    -4.726000000
H    -1.862000000    -3.505000000    -5.085000000
C    -1.597000000    -1.545000000    -4.431000000
C    -2.382000000    -0.346000000    -4.353000000
H    -3.469000000    -0.327000000    -4.372000000
C    -0.227000000    -1.496000000    -4.378000000
C     0.432000000    -0.309000000    -4.330000000
H     1.493000000    -0.222000000    -4.111000000
C    -0.303000000     0.902000000    -4.264000000
O     0.359000000     2.084000000    -4.247000000
C     0.396000000     2.850000000    -2.965000000
C     1.744000000     3.398000000    -2.669000000
C     2.896000000     3.036000000    -3.415000000
H     2.869000000     2.441000000    -4.324000000
C     1.878000000     4.050000000    -1.464000000
H     0.971000000     4.228000000    -0.891000000
O    -0.586000000     3.938000000    -2.979000000
H     0.101000000     2.166000000    -2.156000000
C    -1.718000000     0.879000000    -4.447000000
C    -2.551000000     2.175000000    -4.436000000
H    -3.518000000     1.967000000    -4.900000000
H    -2.145000000     2.959000000    -5.079000000
C    -2.764000000     2.716000000    -3.077000000
C    -1.814000000     3.568000000    -2.414000000
C    -2.081000000     3.983000000    -1.119000000
H    -1.355000000     4.601000000    -0.597000000
C    -3.210000000     3.557000000    -0.435000000
O    -3.349000000     3.910000000     0.951000000
C    -2.672000000     2.955000000     1.874000000
H    -1.864000000     2.448000000     1.326000000
C    -2.010000000     3.701000000     3.160000000
C    -1.901000000     2.952000000     4.330000000
H    -2.408000000     1.992000000     4.399000000
C    -1.340000000     4.852000000     2.953000000
H    -1.598000000     5.371000000     2.034000000
C    -0.461000000     5.331000000     3.961000000
O     0.279000000     6.476000000     3.777000000
C    -0.288000000     4.619000000     5.153000000
H     0.368000000     5.005000000     5.928000000
C    -1.019000000     3.439000000     5.346000000
O    -0.782000000     2.719000000     6.516000000
C    -1.260000000     1.484000000     6.666000000
C    -0.560000000     0.377000000     6.252000000
H     0.449000000     0.477000000     5.862000000
C    -2.407000000     1.261000000     7.434000000
H    -3.027000000     2.140000000     7.590000000
C    -2.931000000    -0.076000000     7.634000000
H    -3.958000000    -0.164000000     7.980000000
C    -2.121000000    -1.097000000     7.299000000
H    -2.406000000    -2.123000000     7.516000000
C    -0.867000000    -0.908000000     6.639000000
O    -0.033000000    -1.948000000     6.319000000
C    -0.004000000    -2.693000000     5.151000000
C     1.032000000    -3.630000000     5.013000000
H     1.714000000    -3.721000000     5.854000000
C     1.252000000    -4.231000000     3.784000000
O     2.457000000    -5.024000000     3.634000000
C     2.792000000    -5.809000000     2.587000000
C     3.397000000    -5.289000000     1.461000000
H     3.564000000    -4.219000000     1.369000000
C     2.543000000    -7.145000000     2.664000000
H     2.122000000    -7.487000000     3.606000000
C     2.769000000    -7.995000000     1.592000000
H     2.571000000    -9.062000000     1.652000000
C     3.304000000    -7.451000000     0.375000000
H     3.509000000    -8.146000000    -0.435000000
C     3.627000000    -6.109000000     0.359000000
O     4.206000000    -5.732000000    -0.825000000
C     3.872000000    -4.680000000    -1.596000000
C     4.828000000    -3.730000000    -1.907000000
H     5.809000000    -3.877000000    -1.461000000
C     4.439000000    -2.598000000    -2.641000000
O     5.360000000    -1.594000000    -2.906000000
C     5.279000000    -0.589000000    -3.772000000
C     5.267000000     0.715000000    -3.295000000
H     5.320000000     0.756000000    -2.210000000
C     5.357000000    -0.826000000    -5.097000000
H     5.400000000    -1.857000000    -5.438000000
C     5.265000000     0.257000000    -6.028000000
H     5.241000000     0.046000000    -7.094000000
C     5.364000000     1.555000000    -5.589000000
H     5.411000000     2.465000000    -6.181000000
C     5.387000000     1.800000000    -4.179000000
O     5.356000000     3.152000000    -3.690000000
C     4.139000000     3.561000000    -3.030000000
C     4.255000000     4.334000000    -1.829000000
H     5.156000000     4.783000000    -1.418000000
C     3.107000000     4.521000000    -1.010000000
O     3.246000000     5.295000000     0.129000000
C     2.366000000     6.130000000     0.746000000
C     2.066000000     7.315000000     0.066000000
H     2.564000000     7.534000000    -0.875000000
C     1.263000000     8.259000000     0.731000000
H     1.061000000     9.210000000     0.246000000
C     0.750000000     7.947000000     1.996000000
H     0.244000000     8.706000000     2.587000000
C     0.874000000     6.722000000     2.559000000
C     1.739000000     5.779000000     1.968000000
H     2.079000000     4.907000000     2.521000000
O     6.862000000    -5.286000000     5.697000000
H     6.146000000    -5.619000000     6.237000000
H     6.564000000    -4.423000000     5.410000000
O     6.232000000    -5.976000000     2.662000000
H     5.913000000    -5.355000000     3.317000000
H     7.181000000    -5.993000000     2.789000000
O     4.057000000    -2.504000000     5.871000000
H     3.802000000    -1.734000000     5.362000000
H     4.806000000    -2.866000000     5.398000000
O     2.568000000    -0.235000000     8.632000000
H     2.922000000    -0.885000000     9.239000000
H     1.772000000    -0.639000000     8.285000000
O     3.439000000     3.631000000     6.752000000
H     4.240000000     3.442000000     6.264000000
H     2.822000000     2.956000000     6.470000000
O     5.526000000     3.198000000     5.187000000
H     5.226000000     3.640000000     4.393000000
H     5.816000000     2.336000000     4.886000000
O     2.735000000     1.189000000     5.271000000
H     2.626000000     1.926000000     4.670000000
H     3.153000000     0.509000000     4.744000000
O     7.966000000    -0.460000000     3.277000000
H     8.597000000     0.085000000     3.747000000
H     8.503000000    -1.016000000     2.712000000
O     5.267000000     0.872000000     7.810000000
H     4.331000000     0.710000000     7.929000000
H     5.381000000     0.932000000     6.862000000
O     5.922000000     0.920000000     1.719000000
H     6.871000000     0.800000000     1.744000000
H     5.576000000     0.210000000     2.260000000
O     5.970000000    -3.138000000     3.871000000
H     5.367000000    -2.700000000     3.271000000
H     6.803000000    -2.683000000     3.749000000
O     8.047000000    -1.065000000    -1.856000000
H     7.777000000    -1.609000000    -2.596000000
H     7.669000000    -1.497000000    -1.091000000
O     5.116000000    -2.431000000     8.615000000
H     4.904000000    -2.336000000     7.686000000
H     5.419000000    -1.563000000     8.881000000
O     1.901000000     2.387000000     2.431000000
H     1.600000000     1.869000000     1.684000000
H     1.141000000     2.433000000     3.012000000
O     4.127000000    -5.266000000     6.370000000
H     3.337000000    -5.777000000     6.544000000
H     3.809000000    -4.473000000     5.939000000
O     6.009000000     0.413000000     5.013000000
H     5.286000000    -0.010000000     4.550000000
H     6.753000000     0.337000000     4.415000000
O     4.618000000     3.076000000     2.592000000
H     5.139000000     2.338000000     2.278000000
H     3.717000000     2.849000000     2.360000000
O     8.423000000    -4.504000000     0.037000000
H     7.902000000    -3.745000000     0.298000000
H     8.750000000    -4.865000000     0.861000000
O     7.061000000    -2.196000000     0.633000000
H     6.283000000    -1.897000000     1.105000000
H     7.786000000    -1.726000000     1.045000000
