201
-1228.54554
C    -0.215000000    -3.110000000     2.464000000
H     0.023000000    -3.578000000     1.512000000
C    -1.501000000    -2.625000000     2.715000000
C    -1.710000000    -2.023000000     3.952000000
H    -2.647000000    -1.535000000     4.209000000
C    -2.529000000    -2.574000000     1.610000000
O    -2.567000000    -3.801000000     0.857000000
H    -2.182000000    -1.844000000     0.863000000
O    -3.897000000    -2.362000000     2.037000000
C    -4.503000000    -1.412000000     1.318000000
C    -4.544000000    -0.136000000     1.923000000
H    -4.269000000    -0.004000000     2.966000000
C    -4.755000000     1.046000000     1.211000000
O    -4.508000000     2.310000000     1.867000000
C    -5.002000000     0.820000000    -0.133000000
C    -5.088000000     2.017000000    -1.065000000
H    -5.602000000     1.822000000    -2.009000000
C    -3.709000000     2.449000000    -1.503000000
C    -3.290000000     2.085000000    -2.856000000
H    -3.917000000     1.395000000    -3.413000000
H    -5.570000000     2.802000000    -0.479000000
C    -5.068000000    -0.426000000    -0.813000000
H    -5.106000000    -0.412000000    -1.900000000
C    -4.820000000    -1.579000000    -0.059000000
C    -4.847000000    -2.960000000    -0.755000000
H    -5.630000000    -2.944000000    -1.516000000
H    -5.044000000    -3.674000000     0.048000000
C    -3.489000000    -3.432000000    -1.342000000
C    -3.130000000    -3.085000000    -2.651000000
H    -3.865000000    -2.709000000    -3.358000000
C    -2.461000000    -3.809000000    -0.499000000
C    -1.201000000    -4.118000000    -1.078000000
H    -0.497000000    -4.540000000    -0.365000000
C    -0.848000000    -3.841000000    -2.388000000
O     0.433000000    -4.122000000    -2.803000000
C     1.404000000    -3.079000000    -2.875000000
C     2.767000000    -3.515000000    -2.463000000
C     3.826000000    -2.718000000    -2.753000000
H     3.594000000    -1.916000000    -3.449000000
C     2.980000000    -4.623000000    -1.666000000
H     2.158000000    -5.180000000    -1.224000000
O     1.443000000    -2.528000000    -4.199000000
H     1.028000000    -2.338000000    -2.155000000
C    -1.842000000    -3.203000000    -3.192000000
C    -1.562000000    -2.876000000    -4.613000000
H    -2.475000000    -2.644000000    -5.165000000
H    -0.838000000    -3.496000000    -5.146000000
C    -0.757000000    -1.514000000    -4.706000000
C    -1.474000000    -0.293000000    -4.938000000
H    -2.550000000    -0.264000000    -5.085000000
C     0.624000000    -1.435000000    -4.544000000
C     1.302000000    -0.198000000    -4.512000000
H     2.353000000    -0.224000000    -4.235000000
C     0.562000000     1.001000000    -4.566000000
O     1.222000000     2.090000000    -4.175000000
C     1.030000000     2.639000000    -2.854000000
C     2.290000000     3.190000000    -2.300000000
C     3.531000000     2.675000000    -2.778000000
H     3.489000000     1.929000000    -3.567000000
C     2.320000000     4.152000000    -1.239000000
H     1.362000000     4.446000000    -0.819000000
O     0.025000000     3.690000000    -2.804000000
H     0.693000000     1.822000000    -2.198000000
C    -0.850000000     0.971000000    -4.725000000
C    -1.675000000     2.244000000    -4.757000000
H    -2.523000000     2.056000000    -5.419000000
H    -1.169000000     3.135000000    -5.135000000
C    -2.092000000     2.593000000    -3.311000000
C    -1.284000000     3.396000000    -2.548000000
C    -1.742000000     3.885000000    -1.340000000
H    -1.192000000     4.609000000    -0.744000000
C    -2.841000000     3.306000000    -0.729000000
O    -3.180000000     3.719000000     0.521000000
C    -3.205000000     2.733000000     1.615000000
H    -2.570000000     1.887000000     1.313000000
C    -2.485000000     3.242000000     2.887000000
C    -2.742000000     2.731000000     4.171000000
H    -3.608000000     2.081000000     4.273000000
C    -1.398000000     4.130000000     2.662000000
H    -1.119000000     4.569000000     1.708000000
C    -0.655000000     4.457000000     3.755000000
O     0.383000000     5.310000000     3.559000000
C    -0.908000000     3.992000000     5.045000000
H    -0.196000000     4.118000000     5.857000000
C    -1.990000000     3.163000000     5.239000000
O    -2.279000000     2.732000000     6.490000000
C    -2.566000000     1.466000000     6.776000000
C    -1.737000000     0.433000000     6.282000000
H    -0.844000000     0.647000000     5.699000000
C    -3.637000000     1.089000000     7.555000000
H    -4.412000000     1.816000000     7.784000000
C    -3.863000000    -0.205000000     7.949000000
H    -4.687000000    -0.317000000     8.650000000
C    -2.967000000    -1.223000000     7.571000000
H    -3.178000000    -2.237000000     7.902000000
C    -1.904000000    -0.875000000     6.732000000
O    -1.140000000    -1.891000000     6.307000000
C    -0.830000000    -2.110000000     4.983000000
C     0.417000000    -2.661000000     4.735000000
H     1.172000000    -2.696000000     5.515000000
C     0.707000000    -3.152000000     3.494000000
O     1.927000000    -3.744000000     3.352000000
C     2.216000000    -4.939000000     2.637000000
C     3.108000000    -4.868000000     1.573000000
H     3.552000000    -3.893000000     1.391000000
C     1.785000000    -6.129000000     3.141000000
H     1.139000000    -6.240000000     4.008000000
C     2.156000000    -7.323000000     2.489000000
H     1.827000000    -8.284000000     2.876000000
C     2.950000000    -7.297000000     1.321000000
H     3.221000000    -8.141000000     0.691000000
C     3.536000000    -6.029000000     0.974000000
O     4.374000000    -5.949000000    -0.175000000
C     4.192000000    -4.922000000    -1.129000000
C     5.247000000    -4.042000000    -1.398000000
H     6.145000000    -4.336000000    -0.859000000
C     5.122000000    -2.952000000    -2.242000000
O     6.246000000    -2.261000000    -2.613000000
C     6.194000000    -1.055000000    -3.373000000
C     6.121000000     0.175000000    -2.690000000
H     6.015000000     0.103000000    -1.611000000
C     6.110000000    -1.113000000    -4.762000000
H     6.198000000    -2.098000000    -5.214000000
C     6.079000000     0.059000000    -5.546000000
H     6.203000000     0.065000000    -6.626000000
C     6.028000000     1.264000000    -4.814000000
H     5.931000000     2.264000000    -5.229000000
C     6.046000000     1.349000000    -3.408000000
O     5.939000000     2.526000000    -2.650000000
C     4.741000000     3.120000000    -2.222000000
C     4.761000000     4.124000000    -1.308000000
H     5.682000000     4.505000000    -0.874000000
C     3.574000000     4.600000000    -0.712000000
O     3.645000000     5.595000000     0.201000000
C     2.505000000     6.111000000     0.762000000
C     1.776000000     7.104000000     0.107000000
H     2.154000000     7.477000000    -0.841000000
C     0.606000000     7.600000000     0.709000000
H     0.080000000     8.471000000     0.328000000
C     0.100000000     6.947000000     1.854000000
H    -0.898000000     7.157000000     2.232000000
C     0.844000000     5.903000000     2.440000000
C     2.073000000     5.535000000     1.978000000
H     2.606000000     4.749000000     2.507000000
O     1.662000000    -0.653000000     7.768000000
H     2.298000000    -0.891000000     7.093000000
H     0.861000000    -1.113000000     7.515000000
O     3.582000000    -1.780000000     5.978000000
H     3.261000000    -1.078000000     5.412000000
H     3.432000000    -2.581000000     5.475000000
O     6.473000000     2.873000000     6.628000000
H     5.647000000     2.391000000     6.640000000
H     6.939000000     2.531000000     5.865000000
O     1.092000000     1.793000000     6.461000000
H     1.716000000     1.342000000     5.891000000
H     1.598000000     2.012000000     7.243000000
O     8.790000000    -0.484000000     3.543000000
H     9.741000000    -0.399000000     3.617000000
H     8.589000000    -0.163000000     2.663000000
O     2.908000000     1.552000000     8.681000000
H     2.325000000     0.808000000     8.530000000
H     3.594000000     1.457000000     8.021000000
O     5.422000000     2.675000000     3.069000000
H     4.712000000     3.237000000     2.757000000
H     5.008000000     1.824000000     3.213000000
O     7.899000000     3.015000000     4.286000000
H     7.123000000     2.891000000     3.740000000
H     8.607000000     3.179000000     3.663000000
O    -0.589000000     1.049000000     9.136000000
H    -1.463000000     1.140000000     8.757000000
H     0.007000000     1.208000000     8.403000000
O     6.342000000    -0.422000000     4.839000000
H     5.569000000    -0.323000000     4.283000000
H     7.081000000    -0.375000000     4.232000000
O     7.228000000     1.143000000     1.698000000
H     6.764000000     1.632000000     2.377000000
H     7.501000000     1.809000000     1.067000000
O     5.385000000    -1.835000000     7.865000000
H     4.551000000    -1.596000000     7.461000000
H     5.140000000    -2.335000000     8.644000000
O     3.078000000     3.835000000     4.793000000
H     3.434000000     3.481000000     5.607000000
H     2.142000000     3.636000000     4.834000000
O     6.926000000    -4.206000000     5.133000000
H     6.369000000    -4.886000000     5.512000000
H     6.566000000    -3.385000000     5.470000000
O     4.471000000     1.103000000     6.270000000
H     3.817000000     1.072000000     5.572000000
H     5.083000000     0.399000000     6.057000000
O     4.567000000     6.008000000     4.241000000
H     5.426000000     5.800000000     4.609000000
H     4.070000000     5.193000000     4.317000000
O     6.760000000    -3.561000000     2.377000000
H     6.336000000    -2.774000000     2.034000000
H     7.080000000    -3.303000000     3.241000000
O     8.086000000    -0.054000000     7.788000000
H     7.179000000     0.239000000     7.703000000
H     8.092000000    -0.931000000     7.404000000
O     5.842000000    -1.303000000     1.659000000
H     5.301000000    -0.909000000     2.343000000
H     6.513000000    -0.646000000     1.476000000
