201
-1244.48556
C    -0.469000000    -3.518000000     4.245000000
H    -0.596000000    -4.336000000     3.540000000
C    -1.143000000    -2.335000000     4.002000000
C    -0.831000000    -1.261000000     4.771000000
H    -1.179000000    -0.278000000     4.463000000
C    -2.236000000    -2.160000000     2.899000000
O    -2.562000000    -3.397000000     2.391000000
H    -1.743000000    -1.677000000     2.043000000
O    -3.395000000    -1.416000000     3.289000000
C    -3.837000000    -0.501000000     2.412000000
C    -3.549000000     0.820000000     2.801000000
H    -2.961000000     1.130000000     3.661000000
C    -3.961000000     1.774000000     1.878000000
O    -3.539000000     3.017000000     2.099000000
C    -4.647000000     1.480000000     0.712000000
C    -5.056000000     2.528000000    -0.266000000
H    -6.001000000     2.314000000    -0.769000000
C    -3.935000000     2.679000000    -1.324000000
C    -4.037000000     2.009000000    -2.554000000
H    -4.923000000     1.428000000    -2.796000000
H    -5.250000000     3.476000000     0.240000000
C    -4.939000000     0.151000000     0.402000000
H    -5.488000000    -0.020000000    -0.521000000
C    -4.516000000    -0.857000000     1.289000000
C    -4.820000000    -2.373000000     0.903000000
H    -5.692000000    -2.428000000     0.248000000
H    -5.152000000    -2.943000000     1.774000000
C    -3.611000000    -2.999000000     0.265000000
C    -3.523000000    -3.017000000    -1.116000000
H    -4.302000000    -2.464000000    -1.634000000
C    -2.555000000    -3.541000000     1.025000000
C    -1.569000000    -4.271000000     0.432000000
H    -0.671000000    -4.637000000     0.923000000
C    -1.466000000    -4.270000000    -0.959000000
O    -0.363000000    -4.716000000    -1.546000000
C     0.483000000    -3.689000000    -2.016000000
C     1.979000000    -4.010000000    -1.718000000
C     2.995000000    -3.560000000    -2.508000000
H     2.712000000    -3.219000000    -3.501000000
C     2.262000000    -4.419000000    -0.424000000
H     1.495000000    -4.629000000     0.317000000
O     0.244000000    -3.453000000    -3.434000000
H     0.234000000    -2.762000000    -1.478000000
C    -2.528000000    -3.751000000    -1.709000000
C    -2.537000000    -3.754000000    -3.247000000
H    -3.597000000    -3.831000000    -3.496000000
H    -2.066000000    -4.655000000    -3.648000000
C    -1.977000000    -2.495000000    -3.843000000
C    -2.701000000    -1.354000000    -4.197000000
H    -3.778000000    -1.503000000    -4.212000000
C    -0.561000000    -2.385000000    -3.755000000
C     0.087000000    -1.183000000    -3.973000000
H     1.163000000    -1.090000000    -4.098000000
C    -0.669000000    -0.114000000    -4.472000000
O     0.055000000     1.006000000    -4.819000000
C     0.429000000     1.901000000    -3.710000000
C     1.839000000     2.475000000    -3.758000000
C     2.847000000     1.640000000    -4.240000000
H     2.559000000     0.651000000    -4.589000000
C     2.151000000     3.756000000    -3.311000000
H     1.361000000     4.467000000    -3.084000000
O    -0.515000000     2.951000000    -3.758000000
H     0.343000000     1.312000000    -2.785000000
C    -2.083000000    -0.107000000    -4.521000000
C    -2.893000000     1.164000000    -4.693000000
H    -3.934000000     1.002000000    -4.979000000
H    -2.385000000     1.666000000    -5.519000000
C    -2.895000000     1.996000000    -3.434000000
C    -1.767000000     2.891000000    -3.140000000
C    -1.780000000     3.656000000    -1.986000000
H    -0.996000000     4.377000000    -1.767000000
C    -2.802000000     3.454000000    -1.024000000
O    -2.735000000     4.156000000     0.131000000
C    -2.390000000     3.453000000     1.304000000
H    -1.864000000     2.503000000     1.130000000
C    -1.479000000     4.234000000     2.161000000
C    -1.541000000     4.188000000     3.560000000
H    -2.449000000     3.831000000     4.039000000
C    -0.301000000     4.727000000     1.483000000
H    -0.203000000     4.775000000     0.402000000
C     0.808000000     5.054000000     2.242000000
O     1.972000000     5.442000000     1.572000000
C     0.774000000     4.944000000     3.630000000
H     1.724000000     4.980000000     4.157000000
C    -0.392000000     4.580000000     4.256000000
O    -0.225000000     4.349000000     5.614000000
C    -0.718000000     3.201000000     6.146000000
C     0.127000000     2.077000000     6.313000000
H     1.175000000     2.216000000     6.059000000
C    -2.096000000     3.081000000     6.437000000
H    -2.851000000     3.826000000     6.198000000
C    -2.579000000     1.896000000     6.895000000
H    -3.640000000     1.721000000     7.056000000
C    -1.754000000     0.778000000     7.019000000
H    -2.114000000    -0.144000000     7.468000000
C    -0.403000000     0.841000000     6.727000000
O     0.385000000    -0.274000000     6.650000000
C     0.078000000    -1.257000000     5.815000000
C     0.758000000    -2.528000000     6.018000000
H     1.465000000    -2.631000000     6.837000000
C     0.491000000    -3.608000000     5.227000000
O     1.226000000    -4.763000000     5.365000000
C     1.825000000    -5.377000000     4.282000000
C     2.599000000    -4.669000000     3.281000000
H     2.797000000    -3.600000000     3.283000000
C     1.674000000    -6.750000000     4.132000000
H     1.075000000    -7.327000000     4.832000000
C     2.277000000    -7.451000000     3.059000000
H     2.163000000    -8.525000000     2.938000000
C     2.973000000    -6.727000000     2.082000000
H     3.452000000    -7.273000000     1.273000000
C     3.143000000    -5.397000000     2.197000000
O     3.871000000    -4.698000000     1.305000000
C     3.609000000    -4.548000000     0.034000000
C     4.575000000    -4.058000000    -0.799000000
H     5.563000000    -3.914000000    -0.370000000
C     4.306000000    -3.540000000    -2.059000000
O     5.310000000    -3.204000000    -2.947000000
C     5.065000000    -2.305000000    -3.968000000
C     5.226000000    -0.939000000    -3.764000000
H     5.362000000    -0.513000000    -2.773000000
C     5.005000000    -2.784000000    -5.274000000
H     5.272000000    -3.834000000    -5.363000000
C     4.897000000    -1.969000000    -6.350000000
H     4.829000000    -2.494000000    -7.299000000
C     4.907000000    -0.586000000    -6.141000000
H     4.918000000     0.098000000    -6.985000000
C     5.087000000    -0.107000000    -4.861000000
O     5.177000000     1.228000000    -4.614000000
C     4.147000000     2.002000000    -4.094000000
C     4.474000000     3.298000000    -3.718000000
H     5.527000000     3.567000000    -3.689000000
C     3.483000000     4.167000000    -3.233000000
O     3.824000000     5.418000000    -2.833000000
C     3.047000000     6.030000000    -1.818000000
C     2.602000000     7.340000000    -1.982000000
H     2.687000000     7.762000000    -2.980000000
C     1.746000000     8.008000000    -1.041000000
H     1.306000000     8.987000000    -1.216000000
C     1.556000000     7.396000000     0.250000000
H     1.047000000     7.881000000     1.079000000
C     2.069000000     6.089000000     0.397000000
C     2.789000000     5.435000000    -0.572000000
H     3.209000000     4.464000000    -0.323000000
O     6.436000000    -6.029000000     3.122000000
H     5.539000000    -6.342000000     3.238000000
H     6.767000000    -5.915000000     4.012000000
O     9.253000000    -5.247000000     1.476000000
H     9.501000000    -5.138000000     0.558000000
H     8.465000000    -4.713000000     1.577000000
O     4.116000000     3.967000000     2.796000000
H     3.597000000     4.673000000     2.410000000
H     4.843000000     3.843000000     2.186000000
O     6.793000000    -3.789000000     1.866000000
H     5.994000000    -3.262000000     1.899000000
H     6.546000000    -4.623000000     2.266000000
O     3.448000000     1.637000000     7.630000000
H     3.501000000     0.902000000     7.019000000
H     4.250000000     2.136000000     7.475000000
O     9.181000000     1.033000000    -0.905000000
H     8.343000000     0.898000000    -0.463000000
H     9.799000000     0.485000000    -0.422000000
O     9.402000000    -1.997000000     2.460000000
H     9.668000000    -2.915000000     2.415000000
H     9.417000000    -1.699000000     1.550000000
O     4.332000000     1.433000000     4.513000000
H     4.150000000     2.146000000     3.900000000
H     4.294000000     0.641000000     3.976000000
O     7.265000000    -0.310000000     3.735000000
H     6.338000000    -0.391000000     3.511000000
H     7.665000000    -1.109000000     3.393000000
O     6.185000000    -0.751000000     7.238000000
H     5.541000000    -1.350000000     6.861000000
H     5.928000000     0.113000000     6.916000000
O     6.659000000     0.248000000    -0.295000000
H     5.947000000     0.831000000    -0.559000000
H     6.269000000    -0.322000000     0.368000000
O     6.079000000     2.360000000     6.637000000
H     5.728000000     2.165000000     5.768000000
H     7.027000000     2.266000000     6.540000000
O     7.865000000    -2.216000000    -0.190000000
H     7.338000000    -1.492000000    -0.528000000
H     7.422000000    -2.480000000     0.615000000
O     7.619000000    -5.495000000     5.464000000
H     7.594000000    -5.787000000     6.375000000
H     7.255000000    -4.610000000     5.486000000
O     6.136000000    -3.165000000     5.227000000
H     5.696000000    -2.818000000     4.451000000
H     5.431000000    -3.302000000     5.861000000
O     8.243000000     1.891000000     5.180000000
H     8.319000000     2.439000000     4.398000000
H     7.788000000     1.105000000     4.878000000
O     3.653000000    -1.420000000     5.751000000
H     3.971000000    -1.005000000     4.949000000
H     2.998000000    -2.050000000     5.451000000
O     4.404000000     1.915000000    -0.562000000
H     4.528000000     2.527000000     0.163000000
H     3.644000000     1.392000000    -0.307000000
O     8.140000000    -4.734000000    -1.292000000
H     8.964000000    -5.049000000    -0.921000000
H     8.120000000    -3.802000000    -1.073000000
