201
-1255.84437
C    -0.146000000    -3.334000000     4.040000000
H    -0.269000000    -4.134000000     3.314000000
C    -1.152000000    -2.408000000     4.047000000
C    -1.103000000    -1.357000000     4.983000000
H    -1.790000000    -0.526000000     4.845000000
C    -2.163000000    -2.416000000     2.896000000
O    -2.545000000    -3.741000000     2.398000000
H    -1.664000000    -1.879000000     2.075000000
O    -3.328000000    -1.703000000     3.301000000
C    -3.768000000    -0.700000000     2.427000000
C    -3.579000000     0.610000000     2.759000000
H    -3.073000000     0.955000000     3.657000000
C    -4.019000000     1.589000000     1.856000000
O    -3.568000000     2.849000000     2.125000000
C    -4.654000000     1.249000000     0.603000000
C    -5.077000000     2.379000000    -0.279000000
H    -5.981000000     2.091000000    -0.820000000
C    -3.993000000     2.671000000    -1.264000000
C    -3.947000000     1.851000000    -2.447000000
H    -4.720000000     1.089000000    -2.499000000
H    -5.318000000     3.240000000     0.349000000
C    -4.923000000    -0.098000000     0.323000000
H    -5.514000000    -0.394000000    -0.540000000
C    -4.476000000    -1.054000000     1.204000000
C    -4.829000000    -2.542000000     0.966000000
H    -5.688000000    -2.604000000     0.295000000
H    -5.141000000    -3.058000000     1.877000000
C    -3.701000000    -3.241000000     0.317000000
C    -3.665000000    -3.249000000    -1.094000000
H    -4.466000000    -2.805000000    -1.679000000
C    -2.623000000    -3.764000000     1.025000000
C    -1.506000000    -4.235000000     0.309000000
H    -0.608000000    -4.655000000     0.756000000
C    -1.408000000    -4.165000000    -1.033000000
O    -0.156000000    -4.480000000    -1.492000000
C     0.653000000    -3.383000000    -2.036000000
C     2.134000000    -3.563000000    -1.726000000
C     3.106000000    -3.241000000    -2.658000000
H     2.805000000    -2.784000000    -3.597000000
C     2.511000000    -4.038000000    -0.448000000
H     1.740000000    -4.146000000     0.310000000
O     0.393000000    -3.283000000    -3.471000000
H     0.303000000    -2.412000000    -1.656000000
C    -2.503000000    -3.693000000    -1.820000000
C    -2.525000000    -3.707000000    -3.324000000
H    -3.569000000    -3.783000000    -3.635000000
H    -1.933000000    -4.515000000    -3.759000000
C    -1.869000000    -2.425000000    -3.829000000
C    -2.669000000    -1.251000000    -4.056000000
H    -3.744000000    -1.321000000    -3.908000000
C    -0.466000000    -2.285000000    -3.950000000
C     0.106000000    -1.138000000    -4.423000000
H     1.186000000    -1.145000000    -4.543000000
C    -0.681000000    -0.052000000    -4.660000000
O     0.007000000     1.123000000    -4.986000000
C     0.230000000     1.963000000    -3.830000000
C     1.648000000     2.496000000    -3.878000000
C     2.762000000     1.585000000    -3.929000000
H     2.711000000     0.502000000    -4.013000000
C     1.873000000     3.846000000    -3.521000000
H     1.100000000     4.568000000    -3.273000000
O    -0.799000000     2.969000000    -3.959000000
H     0.101000000     1.428000000    -2.878000000
C    -2.077000000    -0.086000000    -4.433000000
C    -2.897000000     1.121000000    -4.658000000
H    -3.919000000     0.839000000    -4.919000000
H    -2.420000000     1.745000000    -5.416000000
C    -2.896000000     1.985000000    -3.388000000
C    -1.899000000     2.905000000    -3.138000000
C    -1.908000000     3.630000000    -1.930000000
H    -1.039000000     4.225000000    -1.662000000
C    -2.915000000     3.559000000    -0.981000000
O    -2.727000000     4.140000000     0.217000000
C    -2.424000000     3.298000000     1.321000000
H    -1.896000000     2.414000000     0.935000000
C    -1.331000000     4.085000000     2.181000000
C    -1.343000000     3.976000000     3.602000000
H    -2.180000000     3.473000000     4.080000000
C    -0.143000000     4.501000000     1.548000000
H    -0.026000000     4.514000000     0.467000000
C     1.009000000     4.732000000     2.323000000
O     2.218000000     5.166000000     1.709000000
C     0.943000000     4.646000000     3.659000000
H     1.852000000     4.893000000     4.203000000
C    -0.227000000     4.314000000     4.346000000
O    -0.285000000     4.075000000     5.780000000
C    -0.905000000     2.986000000     6.297000000
C    -0.191000000     1.828000000     6.389000000
H     0.744000000     1.717000000     5.845000000
C    -2.241000000     2.995000000     6.846000000
H    -2.918000000     3.832000000     6.697000000
C    -2.803000000     1.827000000     7.384000000
H    -3.819000000     1.955000000     7.750000000
C    -2.092000000     0.596000000     7.353000000
H    -2.500000000    -0.344000000     7.716000000
C    -0.774000000     0.674000000     6.878000000
O     0.024000000    -0.416000000     6.934000000
C    -0.106000000    -1.406000000     5.941000000
C     0.856000000    -2.437000000     5.946000000
H     1.634000000    -2.384000000     6.704000000
C     0.825000000    -3.445000000     5.002000000
O     1.769000000    -4.430000000     5.063000000
C     2.075000000    -5.219000000     3.920000000
C     2.971000000    -4.686000000     2.981000000
H     3.464000000    -3.740000000     3.189000000
C     1.420000000    -6.451000000     3.715000000
H     0.567000000    -6.740000000     4.323000000
C     1.750000000    -7.162000000     2.545000000
H     1.262000000    -8.110000000     2.333000000
C     2.711000000    -6.621000000     1.643000000
H     2.945000000    -7.139000000     0.716000000
C     3.291000000    -5.367000000     1.859000000
O     4.209000000    -4.941000000     0.996000000
C     3.854000000    -4.372000000    -0.217000000
C     4.815000000    -4.039000000    -1.087000000
H     5.867000000    -4.285000000    -0.962000000
C     4.467000000    -3.492000000    -2.293000000
O     5.358000000    -3.315000000    -3.376000000
C     5.415000000    -2.194000000    -4.140000000
C     5.336000000    -0.926000000    -3.633000000
H     5.398000000    -0.774000000    -2.559000000
C     5.427000000    -2.378000000    -5.508000000
H     5.431000000    -3.384000000    -5.919000000
C     5.394000000    -1.213000000    -6.303000000
H     5.289000000    -1.367000000    -7.374000000
C     5.252000000     0.083000000    -5.807000000
H     5.210000000     0.910000000    -6.511000000
C     5.223000000     0.155000000    -4.464000000
O     5.203000000     1.377000000    -3.868000000
C     4.037000000     2.099000000    -3.713000000
C     4.242000000     3.452000000    -3.453000000
H     5.223000000     3.804000000    -3.146000000
C     3.201000000     4.328000000    -3.299000000
O     3.417000000     5.604000000    -2.890000000
C     2.866000000     6.111000000    -1.788000000
C     2.182000000     7.272000000    -1.837000000
H     2.057000000     7.740000000    -2.810000000
C     1.533000000     7.819000000    -0.731000000
H     1.046000000     8.791000000    -0.752000000
C     1.693000000     7.141000000     0.514000000
H     1.273000000     7.493000000     1.453000000
C     2.289000000     5.878000000     0.559000000
C     2.853000000     5.360000000    -0.601000000
H     3.401000000     4.427000000    -0.491000000
O     8.146000000     4.063000000     5.518000000
H     8.404000000     3.339000000     4.947000000
H     7.683000000     3.642000000     6.243000000
O     5.936000000     1.038000000     5.484000000
H     5.459000000     1.549000000     4.830000000
H     5.419000000     0.239000000     5.588000000
O     4.342000000     4.485000000     2.985000000
H     4.381000000     3.552000000     3.196000000
H     3.492000000     4.599000000     2.559000000
O     4.894000000    -1.833000000     2.794000000
H     5.207000000    -0.954000000     2.583000000
H     4.533000000    -2.163000000     1.971000000
O     8.227000000    -0.475000000     4.780000000
H     7.504000000     0.105000000     5.018000000
H     8.692000000    -0.006000000     4.087000000
O     2.584000000     5.052000000     6.785000000
H     2.823000000     4.194000000     6.434000000
H     2.788000000     5.665000000     6.079000000
O     3.111000000     2.496000000     5.943000000
H     3.288000000     1.705000000     6.451000000
H     3.522000000     2.333000000     5.094000000
O     7.510000000     2.662000000     2.309000000
H     6.773000000     2.093000000     2.085000000
H     7.110000000     3.515000000     2.479000000
O     6.810000000     0.220000000    -0.122000000
H     6.638000000     1.082000000    -0.501000000
H     6.209000000     0.161000000     0.621000000
O     7.032000000     2.621000000     7.521000000
H     6.546000000     1.919000000     7.087000000
H     6.575000000     2.751000000     8.351000000
O     6.430000000     2.829000000    -0.550000000
H     5.493000000     3.026000000    -0.523000000
H     6.841000000     3.555000000    -0.081000000
O     9.377000000     0.857000000     2.928000000
H    10.113000000     0.788000000     2.321000000
H     8.841000000     1.568000000     2.575000000
O     3.382000000    -0.103000000     7.109000000
H     3.656000000    -0.612000000     6.346000000
H     3.111000000    -0.760000000     7.750000000
O     7.078000000    -2.939000000     4.296000000
H     6.456000000    -2.745000000     3.596000000
H     7.446000000    -2.087000000     4.532000000
O     6.437000000     5.502000000     0.758000000
H     5.742000000     6.136000000     0.936000000
H     7.176000000     5.802000000     1.287000000
O     4.489000000    -1.617000000     5.307000000
H     4.728000000    -2.333000000     5.896000000
H     4.664000000    -1.960000000     4.431000000
O     9.231000000    -1.723000000    -0.461000000
H     8.429000000    -1.299000000    -0.766000000
H     9.575000000    -1.132000000     0.209000000
O     8.400000000     2.591000000    -2.321000000
H     7.750000000     2.781000000    -1.644000000
H     8.092000000     3.072000000    -3.090000000
O     4.573000000     6.944000000     4.149000000
H     4.490000000     6.058000000     3.795000000
H     5.217000000     7.369000000     3.583000000
