201
-1232.78793
C    -1.747000000    -4.576000000     2.332000000
H    -1.901000000    -5.078000000     1.380000000
C    -2.377000000    -3.346000000     2.684000000
C    -2.357000000    -2.877000000     3.963000000
H    -3.005000000    -2.025000000     4.153000000
C    -3.194000000    -2.715000000     1.545000000
O    -3.607000000    -3.575000000     0.434000000
H    -2.453000000    -1.984000000     1.190000000
O    -4.292000000    -1.899000000     2.076000000
C    -4.471000000    -0.663000000     1.667000000
C    -3.812000000     0.314000000     2.365000000
H    -3.394000000    -0.005000000     3.316000000
C    -3.720000000     1.647000000     1.829000000
O    -3.135000000     2.600000000     2.657000000
C    -4.383000000     1.959000000     0.664000000
C    -4.290000000     3.408000000     0.184000000
H    -5.214000000     3.539000000    -0.382000000
C    -2.977000000     3.709000000    -0.614000000
C    -2.924000000     3.488000000    -2.001000000
H    -3.784000000     3.147000000    -2.572000000
H    -4.308000000     4.134000000     1.000000000
C    -4.958000000     0.962000000    -0.098000000
H    -5.468000000     1.081000000    -1.050000000
C    -5.025000000    -0.368000000     0.412000000
C    -5.390000000    -1.493000000    -0.476000000
H    -6.224000000    -1.157000000    -1.096000000
H    -5.755000000    -2.340000000     0.108000000
C    -4.238000000    -2.044000000    -1.272000000
C    -3.959000000    -1.565000000    -2.546000000
H    -4.610000000    -0.828000000    -3.010000000
C    -3.424000000    -3.024000000    -0.795000000
C    -2.319000000    -3.569000000    -1.474000000
H    -1.724000000    -4.328000000    -0.972000000
C    -2.058000000    -3.067000000    -2.742000000
O    -0.902000000    -3.445000000    -3.361000000
C     0.283000000    -2.611000000    -3.386000000
C     1.634000000    -3.310000000    -3.033000000
C     2.822000000    -2.958000000    -3.745000000
H     2.891000000    -2.249000000    -4.566000000
C     1.611000000    -4.240000000    -2.075000000
H     0.658000000    -4.604000000    -1.700000000
O     0.231000000    -1.991000000    -4.722000000
H     0.142000000    -1.822000000    -2.633000000
C    -2.915000000    -2.066000000    -3.273000000
C    -2.579000000    -1.561000000    -4.642000000
H    -3.525000000    -1.192000000    -5.044000000
H    -2.222000000    -2.404000000    -5.239000000
C    -1.607000000    -0.444000000    -4.659000000
C    -2.010000000     0.916000000    -4.471000000
H    -3.072000000     1.103000000    -4.605000000
C    -0.233000000    -0.699000000    -4.746000000
C     0.711000000     0.291000000    -4.497000000
H     1.726000000    -0.076000000    -4.368000000
C     0.331000000     1.583000000    -4.131000000
O     1.320000000     2.475000000    -3.855000000
C     1.385000000     2.977000000    -2.488000000
C     2.789000000     3.198000000    -2.058000000
C     3.660000000     2.116000000    -2.370000000
H     3.402000000     1.153000000    -2.803000000
C     3.175000000     4.237000000    -1.235000000
H     2.444000000     4.929000000    -0.826000000
O     0.698000000     4.201000000    -2.442000000
H     0.911000000     2.299000000    -1.764000000
C    -1.062000000     1.953000000    -4.320000000
C    -1.476000000     3.326000000    -4.140000000
H    -2.431000000     3.465000000    -4.650000000
H    -0.697000000     3.970000000    -4.555000000
C    -1.710000000     3.614000000    -2.626000000
C    -0.603000000     4.156000000    -1.932000000
C    -0.738000000     4.493000000    -0.587000000
H     0.075000000     4.808000000     0.062000000
C    -1.896000000     4.245000000     0.080000000
O    -1.861000000     4.281000000     1.432000000
C    -1.860000000     3.042000000     2.161000000
H    -1.474000000     2.233000000     1.523000000
C    -0.811000000     3.032000000     3.241000000
C    -0.928000000     2.147000000     4.384000000
H    -1.711000000     1.394000000     4.419000000
C     0.254000000     3.874000000     3.178000000
H     0.448000000     4.576000000     2.371000000
C     1.190000000     3.847000000     4.178000000
O     2.329000000     4.626000000     4.207000000
C     1.111000000     3.011000000     5.305000000
H     1.860000000     2.939000000     6.089000000
C     0.024000000     2.183000000     5.404000000
O    -0.055000000     1.405000000     6.518000000
C    -0.997000000     0.433000000     6.839000000
C    -0.716000000    -0.872000000     6.560000000
H     0.262000000    -1.101000000     6.145000000
C    -2.303000000     0.893000000     7.182000000
H    -2.629000000     1.926000000     7.271000000
C    -3.361000000    -0.063000000     7.364000000
H    -4.337000000     0.164000000     7.786000000
C    -3.030000000    -1.437000000     7.132000000
H    -3.762000000    -2.218000000     7.318000000
C    -1.752000000    -1.797000000     6.663000000
O    -1.542000000    -3.138000000     6.312000000
C    -1.554000000    -3.547000000     4.952000000
C    -0.794000000    -4.687000000     4.592000000
H    -0.183000000    -5.303000000     5.247000000
C    -0.865000000    -5.280000000     3.258000000
O    -0.313000000    -6.480000000     2.928000000
C     0.037000000    -6.667000000     1.631000000
C     1.238000000    -6.109000000     1.192000000
H     1.869000000    -5.476000000     1.810000000
C    -0.635000000    -7.559000000     0.818000000
H    -1.409000000    -8.204000000     1.225000000
C    -0.276000000    -7.807000000    -0.484000000
H    -0.704000000    -8.587000000    -1.108000000
C     0.873000000    -7.200000000    -0.954000000
H     1.182000000    -7.316000000    -1.990000000
C     1.706000000    -6.362000000    -0.157000000
O     2.807000000    -5.745000000    -0.664000000
C     2.848000000    -4.752000000    -1.593000000
C     4.047000000    -4.399000000    -2.227000000
H     5.012000000    -4.699000000    -1.827000000
C     4.017000000    -3.524000000    -3.303000000
O     5.194000000    -3.241000000    -3.992000000
C     5.662000000    -1.883000000    -4.138000000
C     5.557000000    -1.007000000    -3.098000000
H     5.175000000    -1.268000000    -2.114000000
C     6.093000000    -1.397000000    -5.403000000
H     6.364000000    -2.173000000    -6.114000000
C     6.459000000    -0.074000000    -5.670000000
H     6.959000000     0.224000000    -6.588000000
C     6.355000000     0.810000000    -4.605000000
H     6.553000000     1.869000000    -4.747000000
C     5.867000000     0.362000000    -3.368000000
O     5.943000000     1.278000000    -2.359000000
C     4.994000000     2.282000000    -2.022000000
C     5.418000000     3.327000000    -1.216000000
H     6.440000000     3.430000000    -0.862000000
C     4.510000000     4.302000000    -0.775000000
O     4.878000000     5.252000000     0.116000000
C     4.066000000     5.750000000     1.122000000
C     3.705000000     7.109000000     1.134000000
H     4.010000000     7.806000000     0.358000000
C     2.815000000     7.602000000     2.107000000
H     2.500000000     8.641000000     2.173000000
C     2.337000000     6.730000000     3.083000000
H     1.734000000     7.180000000     3.868000000
C     2.802000000     5.398000000     3.109000000
C     3.577000000     4.872000000     2.090000000
H     3.994000000     3.873000000     2.182000000
O     5.497000000    -8.073000000     1.540000000
H     4.718000000    -8.392000000     1.995000000
H     5.402000000    -7.121000000     1.541000000
O     6.421000000    -2.370000000     0.290000000
H     6.855000000    -3.176000000     0.012000000
H     5.815000000    -2.648000000     0.977000000
O     7.825000000    -5.391000000     2.515000000
H     6.896000000    -5.180000000     2.607000000
H     8.216000000    -4.599000000     2.146000000
O     4.686000000    -5.489000000     1.358000000
H     4.270000000    -5.560000000     0.499000000
H     4.365000000    -4.660000000     1.712000000
O     8.534000000    -4.431000000     5.386000000
H     8.568000000    -4.865000000     4.533000000
H     7.781000000    -3.844000000     5.325000000
O     2.797000000    -2.027000000     5.865000000
H     2.661000000    -1.125000000     5.575000000
H     3.003000000    -2.508000000     5.063000000
O     5.356000000    -3.496000000     7.002000000
H     4.443000000    -3.226000000     7.106000000
H     5.355000000    -4.048000000     6.220000000
O     7.032000000    -2.307000000     3.896000000
H     7.615000000    -2.639000000     3.214000000
H     6.164000000    -2.622000000     3.644000000
O     2.830000000     1.669000000     1.245000000
H     3.742000000     1.388000000     1.330000000
H     2.430000000     1.013000000     0.673000000
O     8.341000000    -0.219000000    -0.093000000
H     7.842000000    -0.934000000     0.303000000
H     8.012000000    -0.166000000    -0.991000000
O     2.027000000    -3.016000000     8.367000000
H     2.073000000    -2.343000000     9.046000000
H     2.166000000    -2.541000000     7.548000000
O     5.671000000     0.375000000     1.089000000
H     6.558000000     0.733000000     1.101000000
H     5.771000000    -0.525000000     1.398000000
O     3.495000000    -8.562000000     3.532000000
H     3.099000000    -7.706000000     3.699000000
H     3.903000000    -8.803000000     4.364000000
O     5.296000000    -4.746000000     4.535000000
H     4.799000000    -4.159000000     3.966000000
H     4.790000000    -5.559000000     4.542000000
O     4.635000000     0.364000000     5.947000000
H     4.125000000     0.356000000     5.136000000
H     5.409000000     0.887000000     5.738000000
O     8.008000000    -0.297000000     5.440000000
H     8.414000000    -0.572000000     6.262000000
H     7.627000000    -1.099000000     5.081000000
O     2.420000000    -5.967000000     4.603000000
H     1.839000000    -6.060000000     5.358000000
H     2.428000000    -5.028000000     4.421000000
O     2.565000000     0.317000000     4.004000000
H     2.315000000     1.231000000     3.870000000
H     2.651000000    -0.040000000     3.119000000
O     3.550000000    -0.247000000     8.231000000
H     4.160000000    -0.171000000     7.497000000
H     2.814000000     0.315000000     7.991000000
