201
-1243.71989
C    -0.856000000    -3.475000000     3.514000000
H    -0.830000000    -4.064000000     2.601000000
C    -1.870000000    -2.514000000     3.620000000
C    -1.789000000    -1.572000000     4.677000000
H    -2.439000000    -0.710000000     4.801000000
C    -2.785000000    -2.255000000     2.414000000
O    -3.172000000    -3.466000000     1.740000000
H    -2.164000000    -1.618000000     1.766000000
O    -3.995000000    -1.560000000     2.835000000
C    -4.346000000    -0.493000000     2.060000000
C    -3.842000000     0.751000000     2.490000000
H    -3.363000000     0.835000000     3.462000000
C    -3.962000000     1.853000000     1.579000000
O    -3.367000000     3.093000000     2.012000000
C    -4.464000000     1.690000000     0.296000000
C    -4.632000000     2.869000000    -0.625000000
H    -5.468000000     2.711000000    -1.310000000
C    -3.452000000     3.009000000    -1.565000000
C    -3.375000000     2.426000000    -2.805000000
H    -4.229000000     1.919000000    -3.248000000
H    -4.780000000     3.853000000    -0.176000000
C    -4.913000000     0.408000000    -0.102000000
H    -5.286000000     0.328000000    -1.120000000
C    -4.754000000    -0.730000000     0.706000000
C    -5.210000000    -2.102000000     0.232000000
H    -6.112000000    -2.149000000    -0.382000000
H    -5.531000000    -2.617000000     1.141000000
C    -4.111000000    -2.865000000    -0.422000000
C    -3.990000000    -2.732000000    -1.821000000
H    -4.779000000    -2.237000000    -2.382000000
C    -3.131000000    -3.513000000     0.332000000
C    -2.000000000    -3.958000000    -0.262000000
H    -1.274000000    -4.494000000     0.344000000
C    -1.937000000    -3.924000000    -1.654000000
O    -0.711000000    -4.324000000    -2.133000000
C     0.329000000    -3.385000000    -2.432000000
C     1.695000000    -3.964000000    -1.940000000
C     2.890000000    -3.346000000    -2.304000000
H     2.865000000    -2.477000000    -2.956000000
C     1.791000000    -4.989000000    -0.947000000
H     0.848000000    -5.363000000    -0.557000000
O     0.383000000    -3.155000000    -3.880000000
H     0.090000000    -2.417000000    -1.968000000
C    -2.851000000    -3.235000000    -2.454000000
C    -2.607000000    -3.142000000    -3.963000000
H    -3.570000000    -3.019000000    -4.462000000
H    -2.228000000    -4.100000000    -4.325000000
C    -1.655000000    -1.935000000    -4.289000000
C    -2.241000000    -0.727000000    -4.385000000
H    -3.327000000    -0.675000000    -4.392000000
C    -0.277000000    -2.073000000    -4.369000000
C     0.501000000    -1.006000000    -4.701000000
H     1.571000000    -1.132000000    -4.557000000
C    -0.043000000     0.208000000    -4.781000000
O     0.875000000     1.238000000    -4.712000000
C     0.966000000     1.961000000    -3.441000000
C     2.389000000     2.417000000    -3.131000000
C     3.418000000     1.656000000    -3.574000000
H     3.072000000     0.661000000    -3.841000000
C     2.674000000     3.676000000    -2.633000000
H     1.928000000     4.419000000    -2.361000000
O     0.144000000     3.188000000    -3.613000000
H     0.637000000     1.267000000    -2.653000000
C    -1.408000000     0.404000000    -4.718000000
C    -1.997000000     1.758000000    -4.907000000
H    -2.917000000     1.718000000    -5.493000000
H    -1.372000000     2.381000000    -5.550000000
C    -2.169000000     2.443000000    -3.545000000
C    -1.118000000     3.188000000    -2.984000000
C    -1.262000000     3.967000000    -1.869000000
H    -0.483000000     4.611000000    -1.471000000
C    -2.325000000     3.715000000    -1.078000000
O    -2.358000000     4.315000000     0.144000000
C    -2.146000000     3.463000000     1.390000000
H    -1.711000000     2.542000000     0.976000000
C    -1.066000000     3.948000000     2.431000000
C    -1.270000000     3.775000000     3.808000000
H    -2.194000000     3.352000000     4.195000000
C     0.188000000     4.244000000     1.864000000
H     0.288000000     4.453000000     0.802000000
C     1.188000000     4.700000000     2.721000000
O     2.387000000     5.090000000     2.315000000
C     1.005000000     4.503000000     4.095000000
H     1.862000000     4.659000000     4.745000000
C    -0.187000000     4.047000000     4.622000000
O    -0.203000000     3.907000000     5.938000000
C    -0.931000000     2.843000000     6.518000000
C    -0.654000000     1.522000000     6.232000000
H     0.046000000     1.296000000     5.432000000
C    -1.786000000     3.165000000     7.488000000
H    -1.918000000     4.221000000     7.708000000
C    -2.429000000     2.179000000     8.298000000
H    -3.096000000     2.366000000     9.135000000
C    -2.082000000     0.870000000     8.074000000
H    -2.492000000     0.124000000     8.750000000
C    -1.238000000     0.461000000     6.982000000
O    -0.911000000    -0.896000000     6.851000000
C    -0.824000000    -1.620000000     5.705000000
C     0.131000000    -2.669000000     5.658000000
H     0.884000000    -2.769000000     6.436000000
C     0.151000000    -3.526000000     4.514000000
O     1.283000000    -4.322000000     4.361000000
C     1.377000000    -5.373000000     3.455000000
C     2.283000000    -5.457000000     2.414000000
H     2.996000000    -4.638000000     2.365000000
C     0.461000000    -6.387000000     3.675000000
H    -0.319000000    -6.259000000     4.422000000
C     0.496000000    -7.427000000     2.687000000
H    -0.404000000    -8.037000000     2.691000000
C     1.273000000    -7.448000000     1.535000000
H     1.155000000    -8.261000000     0.822000000
C     2.284000000    -6.449000000     1.473000000
O     3.106000000    -6.419000000     0.377000000
C     3.072000000    -5.391000000    -0.515000000
C     4.235000000    -4.795000000    -1.002000000
H     5.200000000    -5.079000000    -0.589000000
C     4.127000000    -3.722000000    -1.833000000
O     5.236000000    -3.150000000    -2.209000000
C     5.288000000    -2.394000000    -3.281000000
C     5.401000000    -1.013000000    -3.112000000
H     5.402000000    -0.595000000    -2.109000000
C     5.146000000    -2.970000000    -4.576000000
H     5.070000000    -4.039000000    -4.759000000
C     5.181000000    -2.100000000    -5.732000000
H     5.045000000    -2.523000000    -6.724000000
C     5.295000000    -0.742000000    -5.519000000
H     5.135000000    -0.086000000    -6.371000000
C     5.410000000    -0.168000000    -4.229000000
O     5.713000000     1.114000000    -4.065000000
C     4.741000000     2.057000000    -3.652000000
C     5.065000000     3.264000000    -3.098000000
H     6.124000000     3.511000000    -3.081000000
C     4.031000000     4.075000000    -2.562000000
O     4.378000000     5.302000000    -2.051000000
C     3.553000000     5.962000000    -1.096000000
C     3.180000000     7.282000000    -1.182000000
H     3.387000000     7.879000000    -2.067000000
C     2.503000000     7.920000000    -0.117000000
H     2.210000000     8.964000000    -0.197000000
C     2.244000000     7.169000000     1.027000000
H     1.673000000     7.664000000     1.809000000
C     2.723000000     5.857000000     1.170000000
C     3.382000000     5.241000000     0.073000000
H     3.925000000     4.307000000     0.192000000
O     5.230000000    -5.682000000     4.281000000
H     4.798000000    -5.258000000     5.023000000
H     5.900000000    -5.057000000     4.005000000
O     6.211000000    -3.206000000     0.843000000
H     5.996000000    -3.382000000    -0.073000000
H     5.477000000    -2.682000000     1.165000000
O     7.664000000    -4.356000000     3.193000000
H     7.159000000    -3.846000000     2.560000000
H     8.339000000    -3.753000000     3.504000000
O     7.807000000     0.862000000     6.662000000
H     8.241000000     1.522000000     6.121000000
H     7.184000000     0.439000000     6.070000000
O     2.161000000     0.144000000     6.326000000
H     2.389000000    -0.479000000     5.637000000
H     2.540000000    -0.230000000     7.122000000
O     5.593000000    -0.353000000     4.700000000
H     4.701000000    -0.551000000     4.414000000
H     5.982000000    -1.209000000     4.880000000
O     2.977000000     1.871000000     1.081000000
H     3.273000000     1.931000000     0.172000000
H     2.354000000     1.144000000     1.082000000
O     8.626000000    -1.437000000     0.942000000
H     7.792000000    -1.861000000     0.739000000
H     9.287000000    -2.012000000     0.557000000
O     3.117000000    -1.125000000     8.321000000
H     2.341000000    -1.570000000     8.662000000
H     3.720000000    -1.833000000     8.095000000
O     5.527000000    -0.528000000     0.344000000
H     5.842000000     0.172000000     0.916000000
H     4.964000000    -1.061000000     0.905000000
O     4.873000000    -8.219000000     3.562000000
H     4.947000000    -7.294000000     3.796000000
H     5.666000000    -8.403000000     3.058000000
O     5.360000000    -2.920000000     7.837000000
H     5.648000000    -3.717000000     8.283000000
H     5.035000000    -3.223000000     6.990000000
O     4.280000000     1.141000000     9.115000000
H     3.772000000     1.942000000     8.986000000
H     3.894000000     0.513000000     8.505000000
O     5.165000000     2.526000000     5.521000000
H     4.974000000     2.742000000     4.608000000
H     4.966000000     1.593000000     5.593000000
O     6.583000000     1.345000000     2.689000000
H     6.584000000     0.764000000     3.450000000
H     5.874000000     1.965000000     2.862000000
O     3.524000000    -3.482000000     5.797000000
H     2.813000000    -4.046000000     5.491000000
H     3.670000000    -2.870000000     5.075000000
O     8.467000000     1.742000000     0.290000000
H     7.729000000     2.023000000     0.830000000
H     8.586000000     0.818000000     0.509000000
O     4.576000000     2.994000000     2.868000000
H     4.053000000     3.792000000     2.946000000
H     4.075000000     2.436000000     2.273000000
O     2.675000000     2.976000000     6.639000000
H     3.601000000     2.914000000     6.403000000
H     2.330000000     2.096000000     6.489000000
