201
-1250.30954
C     0.189000000    -4.700000000     3.074000000
H     0.268000000    -5.430000000     2.272000000
C    -0.885000000    -3.805000000     3.148000000
C    -1.060000000    -2.931000000     4.236000000
H    -1.903000000    -2.250000000     4.314000000
C    -1.794000000    -3.615000000     1.978000000
O    -1.875000000    -4.731000000     1.075000000
H    -1.299000000    -2.782000000     1.458000000
O    -3.150000000    -3.156000000     2.299000000
C    -3.730000000    -2.157000000     1.584000000
C    -3.788000000    -0.864000000     2.120000000
H    -3.387000000    -0.630000000     3.103000000
C    -4.319000000     0.164000000     1.345000000
O    -4.214000000     1.494000000     1.817000000
C    -4.734000000     0.014000000     0.063000000
C    -5.360000000     1.172000000    -0.647000000
H    -6.053000000     0.751000000    -1.378000000
C    -4.337000000     1.941000000    -1.398000000
C    -3.976000000     1.502000000    -2.656000000
H    -4.419000000     0.575000000    -3.011000000
H    -5.990000000     1.726000000     0.053000000
C    -4.655000000    -1.303000000    -0.493000000
H    -5.021000000    -1.417000000    -1.510000000
C    -4.162000000    -2.383000000     0.250000000
C    -4.151000000    -3.781000000    -0.390000000
H    -5.022000000    -3.965000000    -1.023000000
H    -4.268000000    -4.488000000     0.434000000
C    -2.787000000    -3.920000000    -1.021000000
C    -2.637000000    -3.682000000    -2.339000000
H    -3.439000000    -3.324000000    -2.980000000
C    -1.715000000    -4.422000000    -0.262000000
C    -0.423000000    -4.372000000    -0.789000000
H     0.408000000    -4.641000000    -0.142000000
C    -0.252000000    -4.062000000    -2.129000000
O     0.993000000    -4.117000000    -2.654000000
C     1.686000000    -2.843000000    -2.728000000
C     3.139000000    -2.933000000    -2.215000000
C     4.109000000    -2.001000000    -2.601000000
H     3.820000000    -1.315000000    -3.393000000
C     3.481000000    -3.786000000    -1.129000000
H     2.800000000    -4.504000000    -0.679000000
O     1.678000000    -2.405000000    -4.190000000
H     1.115000000    -2.068000000    -2.197000000
C    -1.377000000    -3.794000000    -2.965000000
C    -1.063000000    -3.360000000    -4.424000000
H    -1.877000000    -3.561000000    -5.124000000
H    -0.238000000    -3.944000000    -4.838000000
C    -0.627000000    -1.865000000    -4.457000000
C    -1.548000000    -0.851000000    -4.695000000
H    -2.561000000    -1.127000000    -4.977000000
C     0.673000000    -1.480000000    -4.466000000
C     1.015000000    -0.102000000    -4.452000000
H     2.058000000     0.202000000    -4.421000000
C     0.052000000     0.850000000    -4.510000000
O     0.398000000     2.135000000    -4.370000000
C     0.107000000     2.987000000    -3.239000000
C     1.227000000     3.863000000    -2.790000000
C     2.552000000     3.396000000    -2.864000000
H     2.658000000     2.451000000    -3.390000000
C     1.013000000     5.132000000    -2.268000000
H    -0.024000000     5.393000000    -2.073000000
O    -1.163000000     3.748000000    -3.415000000
H    -0.101000000     2.257000000    -2.442000000
C    -1.276000000     0.507000000    -4.627000000
C    -2.416000000     1.561000000    -4.710000000
H    -3.284000000     0.969000000    -5.009000000
H    -2.119000000     2.296000000    -5.461000000
C    -2.937000000     2.126000000    -3.348000000
C    -2.247000000     3.182000000    -2.751000000
C    -2.658000000     3.676000000    -1.551000000
H    -2.138000000     4.514000000    -1.095000000
C    -3.720000000     3.064000000    -0.871000000
O    -3.794000000     3.337000000     0.438000000
C    -3.209000000     2.385000000     1.384000000
H    -2.339000000     1.833000000     1.000000000
C    -2.597000000     3.099000000     2.487000000
C    -2.430000000     2.522000000     3.699000000
H    -2.897000000     1.602000000     4.041000000
C    -1.993000000     4.326000000     2.262000000
H    -2.176000000     4.847000000     1.326000000
C    -1.127000000     4.882000000     3.224000000
O    -0.464000000     6.046000000     2.870000000
C    -0.876000000     4.261000000     4.430000000
H    -0.304000000     4.781000000     5.193000000
C    -1.586000000     3.111000000     4.700000000
O    -1.389000000     2.561000000     5.996000000
C    -1.698000000     1.267000000     6.387000000
C    -0.852000000     0.216000000     6.059000000
H     0.028000000     0.467000000     5.473000000
C    -2.829000000     0.998000000     7.148000000
H    -3.505000000     1.844000000     7.242000000
C    -3.055000000    -0.243000000     7.761000000
H    -3.771000000    -0.424000000     8.559000000
C    -2.217000000    -1.307000000     7.403000000
H    -2.302000000    -2.271000000     7.897000000
C    -1.143000000    -1.063000000     6.537000000
O    -0.201000000    -2.030000000     6.338000000
C    -0.074000000    -2.914000000     5.236000000
C     1.057000000    -3.720000000     5.176000000
H     1.768000000    -3.832000000     5.991000000
C     1.142000000    -4.647000000     4.113000000
O     2.086000000    -5.656000000     4.171000000
C     2.974000000    -5.994000000     3.113000000
C     3.484000000    -5.006000000     2.288000000
H     3.053000000    -4.012000000     2.363000000
C     3.387000000    -7.338000000     3.035000000
H     2.929000000    -8.096000000     3.665000000
C     4.310000000    -7.647000000     2.032000000
H     4.623000000    -8.687000000     1.986000000
C     4.872000000    -6.644000000     1.218000000
H     5.537000000    -6.922000000     0.404000000
C     4.521000000    -5.333000000     1.394000000
O     5.053000000    -4.230000000     0.742000000
C     4.758000000    -3.729000000    -0.540000000
C     5.632000000    -2.758000000    -0.943000000
H     6.636000000    -2.753000000    -0.527000000
C     5.331000000    -1.904000000    -1.954000000
O     6.310000000    -0.951000000    -2.285000000
C     6.111000000     0.189000000    -2.998000000
C     5.664000000     1.305000000    -2.275000000
H     5.464000000     1.092000000    -1.228000000
C     6.069000000     0.129000000    -4.380000000
H     6.273000000    -0.870000000    -4.756000000
C     5.696000000     1.237000000    -5.118000000
H     5.674000000     1.130000000    -6.199000000
C     5.394000000     2.438000000    -4.393000000
H     5.187000000     3.353000000    -4.942000000
C     5.291000000     2.460000000    -3.015000000
O     4.880000000     3.609000000    -2.454000000
C     3.618000000     4.184000000    -2.443000000
C     3.373000000     5.393000000    -1.814000000
H     4.176000000     5.906000000    -1.291000000
C     2.077000000     5.904000000    -1.695000000
O     1.867000000     7.099000000    -1.181000000
C     0.822000000     7.295000000    -0.321000000
C    -0.125000000     8.260000000    -0.617000000
H     0.087000000     8.857000000    -1.501000000
C    -1.292000000     8.397000000     0.119000000
H    -1.989000000     9.220000000    -0.020000000
C    -1.500000000     7.588000000     1.266000000
H    -2.407000000     7.618000000     1.865000000
C    -0.454000000     6.711000000     1.614000000
C     0.679000000     6.582000000     0.914000000
H     1.386000000     5.836000000     1.267000000
O     8.663000000     0.660000000    -0.198000000
H     8.954000000     0.245000000    -1.010000000
H     9.254000000     1.403000000    -0.083000000
O     2.753000000     3.090000000     0.259000000
H     2.480000000     2.176000000     0.340000000
H     2.487000000     3.343000000    -0.625000000
O     3.123000000     4.159000000     3.674000000
H     3.439000000     4.136000000     2.771000000
H     2.703000000     3.308000000     3.802000000
O     2.936000000     2.003000000     5.710000000
H     2.022000000     2.049000000     5.991000000
H     3.143000000     1.069000000     5.722000000
O     3.285000000    -5.769000000     6.661000000
H     3.051000000    -5.709000000     5.735000000
H     4.242000000    -5.748000000     6.668000000
O     8.269000000    -5.691000000     4.410000000
H     7.501000000    -5.219000000     4.089000000
H     7.910000000    -6.469000000     4.838000000
O     6.085000000    -2.773000000     6.516000000
H     6.220000000    -2.695000000     5.572000000
H     5.999000000    -3.714000000     6.669000000
O     7.957000000     2.423000000     3.613000000
H     8.267000000     2.158000000     2.747000000
H     7.104000000     1.998000000     3.703000000
O     8.793000000    -0.923000000     6.118000000
H     7.984000000    -0.572000000     5.746000000
H     9.350000000    -0.155000000     6.249000000
O     6.485000000     1.465000000     1.387000000
H     7.293000000     1.152000000     0.980000000
H     5.937000000     0.684000000     1.465000000
O     4.819000000     4.091000000     1.585000000
H     5.553000000     3.578000000     1.246000000
H     4.062000000     3.783000000     1.088000000
O     6.539000000    -0.730000000     4.458000000
H     6.188000000     0.120000000     4.722000000
H     5.868000000    -1.098000000     3.883000000
O     6.401000000    -1.107000000     8.614000000
H     6.265000000    -1.672000000     7.854000000
H     7.351000000    -1.087000000     8.731000000
O    10.743000000    -0.298000000     1.690000000
H     9.915000000    -0.766000000     1.584000000
H    10.503000000     0.514000000     2.137000000
O     8.255000000    -5.068000000     0.727000000
H     8.175000000    -5.809000000     1.328000000
H     7.759000000    -4.365000000     1.146000000
O     7.956000000    -1.379000000     2.301000000
H     7.342000000    -0.859000000     1.783000000
H     7.765000000    -1.142000000     3.208000000
O     5.423000000     1.954000000     4.615000000
H     5.737000000     2.216000000     5.480000000
H     4.504000000     2.220000000     4.603000000
O     6.394000000    -3.660000000     3.471000000
H     6.877000000    -2.942000000     3.062000000
H     5.483000000    -3.513000000     3.216000000
O     3.111000000    -0.658000000     5.516000000
H     3.531000000    -1.089000000     4.771000000
H     3.310000000    -1.224000000     6.263000000
