201
-1228.36345
C    -1.110000000    -3.424000000     3.466000000
H    -0.919000000    -3.741000000     2.444000000
C    -2.066000000    -2.451000000     3.737000000
C    -2.165000000    -1.868000000     4.965000000
H    -2.912000000    -1.128000000     5.240000000
C    -3.006000000    -1.905000000     2.652000000
O    -3.652000000    -2.906000000     1.755000000
H    -2.425000000    -1.282000000     1.956000000
O    -4.093000000    -1.096000000     3.218000000
C    -4.277000000     0.089000000     2.665000000
C    -3.500000000     1.138000000     3.211000000
H    -2.864000000     0.977000000     4.078000000
C    -3.379000000     2.366000000     2.567000000
O    -2.384000000     3.245000000     3.016000000
C    -4.040000000     2.598000000     1.345000000
C    -3.930000000     3.927000000     0.667000000
H    -4.871000000     4.269000000     0.231000000
C    -2.780000000     3.927000000    -0.303000000
C    -2.964000000     3.647000000    -1.692000000
H    -3.898000000     3.251000000    -2.081000000
H    -3.731000000     4.632000000     1.477000000
C    -4.845000000     1.619000000     0.819000000
H    -5.437000000     1.643000000    -0.093000000
C    -4.868000000     0.319000000     1.401000000
C    -5.619000000    -0.838000000     0.700000000
H    -6.360000000    -0.410000000     0.023000000
H    -6.153000000    -1.354000000     1.501000000
C    -4.726000000    -1.672000000    -0.131000000
C    -4.687000000    -1.454000000    -1.518000000
H    -5.379000000    -0.807000000    -2.050000000
C    -3.790000000    -2.676000000     0.378000000
C    -2.949000000    -3.333000000    -0.477000000
H    -2.300000000    -4.077000000    -0.023000000
C    -2.886000000    -3.024000000    -1.816000000
O    -1.823000000    -3.497000000    -2.592000000
C    -0.792000000    -2.669000000    -3.082000000
C     0.603000000    -3.279000000    -2.989000000
C     1.546000000    -3.072000000    -4.003000000
H     1.379000000    -2.567000000    -4.951000000
C     0.947000000    -3.801000000    -1.749000000
H     0.183000000    -3.884000000    -0.980000000
O    -1.108000000    -2.283000000    -4.457000000
H    -0.706000000    -1.758000000    -2.471000000
C    -3.802000000    -2.118000000    -2.356000000
C    -3.824000000    -1.680000000    -3.795000000
H    -4.822000000    -1.340000000    -4.081000000
H    -3.610000000    -2.519000000    -4.460000000
C    -2.779000000    -0.580000000    -4.142000000
C    -3.052000000     0.763000000    -3.922000000
H    -4.011000000     1.120000000    -3.557000000
C    -1.535000000    -1.000000000    -4.498000000
C    -0.566000000    -0.062000000    -4.785000000
H     0.372000000    -0.438000000    -5.186000000
C    -0.802000000     1.277000000    -4.705000000
O     0.264000000     2.116000000    -4.775000000
C     0.841000000     2.499000000    -3.562000000
C     2.379000000     2.134000000    -3.491000000
C     3.056000000     1.805000000    -4.697000000
H     2.518000000     1.574000000    -5.612000000
C     3.094000000     2.263000000    -2.295000000
H     2.612000000     2.594000000    -1.378000000
O     0.371000000     3.860000000    -3.172000000
H     0.419000000     1.781000000    -2.844000000
C    -2.044000000     1.666000000    -4.249000000
C    -2.311000000     3.128000000    -4.061000000
H    -3.373000000     3.362000000    -4.154000000
H    -1.804000000     3.795000000    -4.761000000
C    -1.935000000     3.632000000    -2.614000000
C    -0.691000000     4.023000000    -2.238000000
C    -0.392000000     4.282000000    -0.901000000
H     0.597000000     4.575000000    -0.556000000
C    -1.469000000     4.236000000     0.061000000
O    -1.083000000     4.449000000     1.384000000
C    -1.160000000     3.336000000     2.318000000
H    -1.054000000     2.363000000     1.815000000
C     0.073000000     3.327000000     3.210000000
C    -0.037000000     2.937000000     4.573000000
H    -1.006000000     2.647000000     4.970000000
C     1.339000000     3.624000000     2.696000000
H     1.460000000     3.942000000     1.663000000
C     2.454000000     3.495000000     3.489000000
O     3.770000000     3.759000000     3.138000000
C     2.289000000     3.038000000     4.752000000
H     3.198000000     2.988000000     5.345000000
C     1.076000000     2.818000000     5.333000000
O     1.036000000     2.522000000     6.659000000
C     0.214000000     1.638000000     7.252000000
C    -0.167000000     0.369000000     6.785000000
H     0.231000000     0.009000000     5.840000000
C    -0.164000000     2.026000000     8.529000000
H     0.228000000     2.999000000     8.813000000
C    -0.930000000     1.171000000     9.332000000
H    -1.100000000     1.493000000    10.356000000
C    -1.395000000     0.014000000     8.783000000
H    -1.998000000    -0.599000000     9.449000000
C    -1.032000000    -0.416000000     7.549000000
O    -1.312000000    -1.814000000     7.232000000
C    -1.215000000    -2.344000000     5.965000000
C    -0.364000000    -3.437000000     5.730000000
H     0.249000000    -3.886000000     6.508000000
C    -0.384000000    -4.051000000     4.476000000
O     0.601000000    -4.987000000     4.196000000
C     0.757000000    -5.543000000     2.949000000
C     1.514000000    -4.874000000     1.997000000
H     2.001000000    -3.941000000     2.268000000
C     0.114000000    -6.736000000     2.600000000
H    -0.471000000    -7.251000000     3.358000000
C     0.331000000    -7.267000000     1.354000000
H    -0.120000000    -8.235000000     1.152000000
C     1.116000000    -6.639000000     0.356000000
H     1.135000000    -7.013000000    -0.664000000
C     1.678000000    -5.386000000     0.721000000
O     2.574000000    -4.761000000    -0.154000000
C     2.221000000    -4.277000000    -1.471000000
C     3.182000000    -4.222000000    -2.510000000
H     4.134000000    -4.731000000    -2.384000000
C     2.827000000    -3.584000000    -3.745000000
O     3.745000000    -3.633000000    -4.805000000
C     4.131000000    -2.602000000    -5.649000000
C     4.485000000    -1.330000000    -5.200000000
H     4.524000000    -1.098000000    -4.139000000
C     4.024000000    -2.907000000    -6.985000000
H     3.629000000    -3.872000000    -7.291000000
C     4.498000000    -1.968000000    -7.893000000
H     4.502000000    -2.189000000    -8.957000000
C     4.905000000    -0.661000000    -7.434000000
H     5.196000000     0.117000000    -8.135000000
C     4.755000000    -0.292000000    -6.105000000
O     5.054000000     0.986000000    -5.725000000
C     4.428000000     1.537000000    -4.669000000
C     5.102000000     1.633000000    -3.485000000
H     6.137000000     1.317000000    -3.385000000
C     4.475000000     1.981000000    -2.284000000
O     5.225000000     1.954000000    -1.102000000
C     5.007000000     3.054000000    -0.292000000
C     4.915000000     4.337000000    -0.801000000
H     5.224000000     4.573000000    -1.816000000
C     4.495000000     5.420000000    -0.039000000
H     4.461000000     6.424000000    -0.453000000
C     4.092000000     5.302000000     1.270000000
H     3.664000000     6.137000000     1.818000000
C     4.198000000     3.965000000     1.868000000
C     4.676000000     2.878000000     1.053000000
H     4.649000000     1.853000000     1.414000000
O     7.385000000     3.007000000     3.145000000
H     6.464000000     2.802000000     3.303000000
H     7.866000000     2.383000000     3.689000000
O     2.221000000    -5.821000000     6.937000000
H     2.359000000    -5.841000000     5.990000000
H     3.098000000    -5.712000000     7.305000000
O     7.289000000    -1.531000000    -2.744000000
H     7.167000000    -1.998000000    -3.570000000
H     6.410000000    -1.474000000    -2.369000000
O     6.339000000    -7.240000000     1.173000000
H     6.448000000    -6.295000000     1.271000000
H     6.295000000    -7.571000000     2.070000000
O     6.418000000    -3.022000000     6.160000000
H     6.213000000    -3.866000000     6.563000000
H     6.184000000    -3.134000000     5.238000000
O     3.216000000    -3.541000000     5.132000000
H     2.738000000    -4.214000000     4.649000000
H     3.266000000    -2.801000000     4.526000000
O     5.128000000    -1.604000000    -1.416000000
H     4.373000000    -2.129000000    -1.679000000
H     4.991000000    -1.436000000    -0.483000000
O     4.835000000     0.563000000     7.593000000
H     4.144000000    -0.002000000     7.244000000
H     5.512000000    -0.044000000     7.890000000
O     5.273000000    -5.819000000     4.819000000
H     5.308000000    -4.927000000     4.475000000
H     5.346000000    -5.713000000     5.767000000
O     9.052000000    -0.196000000     1.083000000
H     9.604000000    -0.669000000     0.460000000
H     9.602000000    -0.093000000     1.860000000
O     9.227000000    -3.194000000     2.932000000
H    10.021000000    -3.034000000     2.423000000
H     8.526000000    -2.802000000     2.412000000
O     7.689000000    -4.147000000     0.387000000
H     6.733000000    -4.107000000     0.426000000
H     7.905000000    -3.850000000    -0.497000000
O     8.909000000    -2.333000000     5.690000000
H     9.312000000    -2.540000000     4.847000000
H     7.984000000    -2.550000000     5.574000000
O     3.527000000    -0.087000000     5.222000000
H     3.470000000    -0.797000000     4.583000000
H     3.050000000     0.638000000     4.818000000
O     7.023000000    -1.417000000     2.249000000
H     7.539000000    -0.797000000     1.733000000
H     6.153000000    -1.396000000     1.849000000
O     5.838000000    -3.390000000     3.393000000
H     5.115000000    -2.972000000     2.927000000
H     6.623000000    -2.966000000     3.048000000
O     6.312000000     2.178000000     6.008000000
H     6.936000000     1.471000000     5.842000000
H     5.664000000     1.792000000     6.598000000
O     5.142000000    -4.104000000     0.538000000
H     4.318000000    -4.543000000     0.326000000
H     4.878000000    -3.248000000     0.875000000
O     2.793000000    -2.026000000     7.359000000
H     3.196000000    -2.798000000     6.963000000
H     2.432000000    -1.538000000     6.619000000
