201
-1209.38795
C    -1.961000000    -4.155000000     2.934000000
H    -2.144000000    -4.512000000     1.924000000
C    -2.414000000    -2.833000000     3.130000000
C    -2.076000000    -2.204000000     4.389000000
H    -2.285000000    -1.139000000     4.448000000
C    -3.133000000    -2.116000000     2.027000000
O    -3.936000000    -2.991000000     1.155000000
H    -2.450000000    -1.594000000     1.340000000
O    -4.110000000    -1.176000000     2.496000000
C    -4.112000000     0.063000000     1.921000000
C    -3.424000000     1.063000000     2.566000000
H    -2.910000000     0.869000000     3.504000000
C    -3.311000000     2.343000000     2.019000000
O    -2.350000000     3.198000000     2.598000000
C    -3.950000000     2.618000000     0.845000000
C    -3.852000000     3.957000000     0.132000000
H    -4.732000000     4.123000000    -0.492000000
C    -2.582000000     4.014000000    -0.709000000
C    -2.648000000     3.579000000    -2.059000000
H    -3.594000000     3.389000000    -2.559000000
H    -3.826000000     4.750000000     0.883000000
C    -4.719000000     1.549000000     0.174000000
H    -5.122000000     1.709000000    -0.823000000
C    -4.831000000     0.284000000     0.707000000
C    -5.539000000    -0.822000000    -0.028000000
H    -6.199000000    -0.409000000    -0.794000000
H    -6.087000000    -1.437000000     0.689000000
C    -4.539000000    -1.769000000    -0.748000000
C    -4.346000000    -1.537000000    -2.081000000
H    -4.819000000    -0.618000000    -2.418000000
C    -3.778000000    -2.685000000    -0.127000000
C    -2.799000000    -3.397000000    -0.851000000
H    -2.241000000    -4.171000000    -0.330000000
C    -2.661000000    -3.205000000    -2.241000000
O    -1.536000000    -3.732000000    -2.792000000
C    -0.372000000    -2.907000000    -3.027000000
C     0.791000000    -3.651000000    -2.570000000
C     2.003000000    -3.500000000    -3.287000000
H     1.948000000    -2.881000000    -4.179000000
C     0.796000000    -4.516000000    -1.493000000
H    -0.034000000    -4.423000000    -0.797000000
O    -0.405000000    -2.499000000    -4.398000000
H    -0.329000000    -2.053000000    -2.335000000
C    -3.398000000    -2.201000000    -2.828000000
C    -3.183000000    -1.775000000    -4.277000000
H    -4.062000000    -1.331000000    -4.748000000
H    -2.944000000    -2.651000000    -4.883000000
C    -2.069000000    -0.788000000    -4.326000000
C    -2.287000000     0.560000000    -4.343000000
H    -3.287000000     0.961000000    -4.200000000
C    -0.745000000    -1.185000000    -4.557000000
C     0.318000000    -0.274000000    -4.476000000
H     1.350000000    -0.556000000    -4.283000000
C     0.026000000     1.091000000    -4.439000000
O     1.105000000     1.962000000    -4.298000000
C     1.381000000     2.474000000    -2.978000000
C     2.830000000     2.459000000    -2.628000000
C     3.669000000     1.503000000    -3.288000000
H     3.296000000     0.872000000    -4.091000000
C     3.335000000     3.176000000    -1.537000000
H     2.680000000     3.907000000    -1.071000000
O     0.921000000     3.834000000    -2.910000000
H     0.846000000     1.962000000    -2.164000000
C    -1.292000000     1.513000000    -4.336000000
C    -1.643000000     3.038000000    -4.290000000
H    -2.634000000     3.169000000    -4.731000000
H    -0.987000000     3.576000000    -4.977000000
C    -1.520000000     3.565000000    -2.819000000
C    -0.318000000     4.069000000    -2.291000000
C    -0.220000000     4.332000000    -0.955000000
H     0.661000000     4.464000000    -0.332000000
C    -1.353000000     4.417000000    -0.206000000
O    -1.190000000     4.708000000     1.101000000
C    -1.066000000     3.526000000     1.907000000
H    -0.775000000     2.677000000     1.271000000
C     0.009000000     3.718000000     3.056000000
C     0.002000000     2.893000000     4.218000000
H    -0.769000000     2.130000000     4.278000000
C     1.121000000     4.598000000     2.951000000
H     1.103000000     5.297000000     2.119000000
C     2.101000000     4.697000000     3.939000000
O     3.151000000     5.492000000     3.751000000
C     2.007000000     3.856000000     5.073000000
H     2.735000000     3.898000000     5.880000000
C     0.975000000     2.965000000     5.220000000
O     0.927000000     2.134000000     6.374000000
C    -0.092000000     1.333000000     6.759000000
C     0.054000000    -0.026000000     6.569000000
H     1.031000000    -0.385000000     6.257000000
C    -1.266000000     1.907000000     7.200000000
H    -1.458000000     2.976000000     7.193000000
C    -2.384000000     1.079000000     7.420000000
H    -3.315000000     1.499000000     7.792000000
C    -2.176000000    -0.294000000     7.256000000
H    -3.018000000    -0.957000000     7.439000000
C    -0.986000000    -0.853000000     6.803000000
O    -0.904000000    -2.261000000     6.568000000
C    -1.387000000    -2.909000000     5.386000000
C    -0.981000000    -4.223000000     5.114000000
H    -0.437000000    -4.825000000     5.837000000
C    -1.244000000    -4.847000000     3.873000000
O    -0.970000000    -6.145000000     3.651000000
C    -0.708000000    -6.610000000     2.404000000
C     0.532000000    -6.215000000     1.818000000
H     1.241000000    -5.661000000     2.429000000
C    -1.497000000    -7.484000000     1.711000000
H    -2.488000000    -7.790000000     2.036000000
C    -1.158000000    -7.880000000     0.414000000
H    -1.721000000    -8.502000000    -0.277000000
C    -0.015000000    -7.294000000    -0.235000000
H     0.182000000    -7.644000000    -1.245000000
C     0.841000000    -6.537000000     0.475000000
O     1.970000000    -6.127000000    -0.108000000
C     1.963000000    -5.194000000    -1.114000000
C     3.101000000    -5.187000000    -1.960000000
H     3.893000000    -5.921000000    -1.837000000
C     3.172000000    -4.232000000    -2.989000000
O     4.317000000    -4.069000000    -3.694000000
C     4.724000000    -2.954000000    -4.379000000
C     4.919000000    -1.756000000    -3.596000000
H     4.879000000    -1.670000000    -2.514000000
C     4.705000000    -2.873000000    -5.755000000
H     4.494000000    -3.783000000    -6.312000000
C     5.002000000    -1.744000000    -6.382000000
H     4.983000000    -1.640000000    -7.464000000
C     5.309000000    -0.589000000    -5.699000000
H     5.519000000     0.320000000    -6.257000000
C     5.316000000    -0.617000000    -4.313000000
O     5.846000000     0.490000000    -3.612000000
C     4.960000000     1.262000000    -2.815000000
C     5.455000000     2.076000000    -1.801000000
H     6.539000000     2.094000000    -1.720000000
C     4.643000000     3.017000000    -1.129000000
O     5.241000000     3.811000000    -0.108000000
C     4.721000000     4.931000000     0.570000000
C     4.875000000     6.180000000     0.051000000
H     5.501000000     6.416000000    -0.806000000
C     4.579000000     7.295000000     0.871000000
H     4.705000000     8.320000000     0.533000000
C     3.864000000     7.113000000     2.080000000
H     3.418000000     7.996000000     2.532000000
C     3.584000000     5.825000000     2.488000000
C     4.050000000     4.744000000     1.757000000
H     3.943000000     3.756000000     2.197000000
O     6.594000000    -7.088000000     3.772000000
H     6.121000000    -6.496000000     3.188000000
H     7.404000000    -6.623000000     3.980000000
O     7.949000000    -2.289000000     3.426000000
H     8.495000000    -2.779000000     2.811000000
H     7.493000000    -1.646000000     2.884000000
O     6.237000000    -0.692000000     2.041000000
H     5.420000000    -1.108000000     2.316000000
H     6.017000000     0.235000000     1.954000000
O     7.415000000    -4.531000000    -2.035000000
H     6.926000000    -3.798000000    -1.660000000
H     6.930000000    -4.763000000    -2.827000000
O     5.251000000    -7.933000000     0.957000000
H     4.907000000    -7.115000000     1.317000000
H     4.559000000    -8.575000000     1.118000000
O     5.063000000    -0.597000000     8.924000000
H     4.902000000    -0.388000000     8.004000000
H     5.372000000    -1.503000000     8.914000000
O     5.641000000    -2.820000000     4.827000000
H     6.427000000    -2.895000000     4.285000000
H     4.916000000    -2.862000000     4.204000000
O     5.133000000    -5.388000000     2.142000000
H     5.539000000    -4.817000000     1.490000000
H     4.354000000    -4.911000000     2.427000000
O     2.574000000    -4.750000000     4.980000000
H     2.528000000    -3.918000000     4.509000000
H     3.434000000    -4.740000000     5.400000000
O     3.538000000     1.254000000     7.565000000
H     3.289000000     0.592000000     8.210000000
H     2.707000000     1.624000000     7.268000000
O     8.829000000    -1.193000000    -0.928000000
H     8.791000000    -0.696000000    -1.745000000
H     8.111000000    -0.841000000    -0.401000000
O     6.111000000    -3.423000000     0.158000000
H     6.816000000    -3.297000000     0.794000000
H     5.358000000    -2.977000000     0.545000000
O     3.568000000    -2.002000000     6.290000000
H     4.484000000    -2.161000000     6.060000000
H     3.103000000    -2.032000000     5.454000000
O     7.220000000     1.259000000     5.239000000
H     7.792000000     0.494000000     5.180000000
H     6.693000000     1.226000000     4.440000000
O     9.279000000    -0.719000000     5.018000000
H     8.621000000    -1.263000000     4.585000000
H    10.091000000    -1.219000000     4.943000000
O     4.754000000    -7.102000000     5.694000000
H     5.514000000    -6.981000000     5.124000000
H     4.014000000    -7.185000000     5.092000000
O     1.230000000    -6.313000000     6.914000000
H     1.414000000    -5.714000000     6.190000000
H     1.404000000    -5.797000000     7.702000000
O     5.967000000     2.020000000     2.349000000
H     6.401000000     1.778000000     1.530000000
H     6.530000000     2.696000000     2.726000000
O     1.838000000    -2.573000000     8.268000000
H     2.581000000    -2.514000000     7.667000000
H     1.081000000    -2.714000000     7.699000000
