201
-1247.98567
C    -2.258000000    -3.791000000     2.411000000
H    -2.302000000    -4.280000000     1.441000000
C    -2.839000000    -2.561000000     2.612000000
C    -2.859000000    -1.934000000     3.853000000
H    -3.407000000    -1.001000000     3.962000000
C    -3.489000000    -1.865000000     1.363000000
O    -4.002000000    -2.730000000     0.355000000
H    -2.776000000    -1.136000000     0.950000000
O    -4.637000000    -1.023000000     1.666000000
C    -4.621000000     0.278000000     1.088000000
C    -4.118000000     1.312000000     1.824000000
H    -3.687000000     1.072000000     2.793000000
C    -3.851000000     2.563000000     1.234000000
O    -3.121000000     3.457000000     1.954000000
C    -4.187000000     2.828000000    -0.095000000
C    -3.891000000     4.145000000    -0.892000000
H    -4.532000000     4.130000000    -1.776000000
C    -2.407000000     4.119000000    -1.433000000
C    -2.151000000     3.776000000    -2.786000000
H    -2.939000000     3.528000000    -3.492000000
H    -4.132000000     5.021000000    -0.285000000
C    -4.718000000     1.746000000    -0.789000000
H    -4.977000000     2.011000000    -1.811000000
C    -4.878000000     0.466000000    -0.237000000
C    -5.369000000    -0.624000000    -1.182000000
H    -5.888000000    -0.148000000    -2.016000000
H    -6.050000000    -1.282000000    -0.640000000
C    -4.225000000    -1.443000000    -1.776000000
C    -3.670000000    -1.202000000    -2.999000000
H    -4.125000000    -0.406000000    -3.583000000
C    -3.606000000    -2.452000000    -0.907000000
C    -2.439000000    -3.133000000    -1.352000000
H    -1.880000000    -3.800000000    -0.700000000
C    -2.036000000    -2.950000000    -2.695000000
O    -0.877000000    -3.592000000    -3.084000000
C     0.331000000    -2.790000000    -2.897000000
C     1.336000000    -3.642000000    -2.309000000
C     2.675000000    -3.261000000    -2.450000000
H     2.917000000    -2.400000000    -3.069000000
C     0.949000000    -4.808000000    -1.633000000
H    -0.090000000    -5.122000000    -1.564000000
O     0.735000000    -2.374000000    -4.225000000
H     0.169000000    -1.935000000    -2.224000000
C    -2.590000000    -1.913000000    -3.499000000
C    -2.126000000    -1.619000000    -4.892000000
H    -2.852000000    -1.213000000    -5.600000000
H    -1.702000000    -2.524000000    -5.333000000
C    -0.943000000    -0.636000000    -4.745000000
C    -1.247000000     0.722000000    -4.949000000
H    -2.268000000     1.002000000    -5.197000000
C     0.421000000    -1.085000000    -4.519000000
C     1.368000000    -0.095000000    -4.534000000
H     2.383000000    -0.330000000    -4.225000000
C     0.990000000     1.278000000    -4.587000000
O     2.045000000     2.145000000    -4.313000000
C     2.096000000     2.644000000    -2.928000000
C     3.530000000     2.703000000    -2.295000000
C     4.446000000     1.761000000    -2.771000000
H     4.204000000     1.149000000    -3.636000000
C     3.865000000     3.551000000    -1.212000000
H     3.113000000     4.188000000    -0.752000000
O     1.421000000     3.946000000    -2.803000000
H     1.573000000     1.963000000    -2.241000000
C    -0.282000000     1.695000000    -4.741000000
C    -0.657000000     3.091000000    -4.643000000
H    -1.592000000     3.255000000    -5.182000000
H     0.177000000     3.694000000    -5.008000000
C    -0.848000000     3.584000000    -3.208000000
C     0.161000000     3.924000000    -2.347000000
C    -0.044000000     4.277000000    -1.042000000
H     0.776000000     4.630000000    -0.422000000
C    -1.291000000     4.336000000    -0.533000000
O    -1.419000000     4.560000000     0.791000000
C    -1.691000000     3.414000000     1.644000000
H    -1.491000000     2.510000000     1.050000000
C    -0.861000000     3.406000000     2.881000000
C    -1.401000000     3.030000000     4.120000000
H    -2.472000000     2.871000000     4.216000000
C     0.536000000     3.692000000     2.870000000
H     1.013000000     3.860000000     1.908000000
C     1.300000000     3.694000000     4.022000000
O     2.698000000     3.826000000     3.895000000
C     0.776000000     3.282000000     5.190000000
H     1.353000000     3.233000000     6.110000000
C    -0.602000000     2.977000000     5.283000000
O    -1.152000000     2.510000000     6.523000000
C    -2.082000000     1.470000000     6.662000000
C    -1.732000000     0.196000000     6.233000000
H    -0.774000000    -0.030000000     5.770000000
C    -3.355000000     1.698000000     7.212000000
H    -3.652000000     2.684000000     7.560000000
C    -4.242000000     0.682000000     7.413000000
H    -5.190000000     0.983000000     7.852000000
C    -4.022000000    -0.591000000     6.917000000
H    -4.853000000    -1.278000000     6.776000000
C    -2.685000000    -0.842000000     6.484000000
O    -2.471000000    -2.170000000     6.154000000
C    -2.344000000    -2.629000000     4.886000000
C    -1.750000000    -3.905000000     4.732000000
H    -1.395000000    -4.453000000     5.602000000
C    -1.642000000    -4.493000000     3.462000000
O    -0.985000000    -5.713000000     3.365000000
C    -0.703000000    -6.507000000     2.257000000
C     0.346000000    -6.177000000     1.424000000
H     0.931000000    -5.261000000     1.441000000
C    -1.237000000    -7.810000000     2.269000000
H    -2.049000000    -8.029000000     2.958000000
C    -0.828000000    -8.734000000     1.306000000
H    -1.353000000    -9.685000000     1.284000000
C     0.119000000    -8.386000000     0.323000000
H     0.534000000    -9.056000000    -0.425000000
C     0.659000000    -7.078000000     0.396000000
O     1.709000000    -6.769000000    -0.451000000
C     1.961000000    -5.566000000    -1.020000000
C     3.268000000    -5.132000000    -0.969000000
H     4.035000000    -5.750000000    -0.510000000
C     3.596000000    -3.998000000    -1.723000000
O     4.871000000    -3.441000000    -1.644000000
C     5.411000000    -2.601000000    -2.625000000
C     5.791000000    -1.345000000    -2.238000000
H     5.619000000    -0.994000000    -1.223000000
C     5.705000000    -3.068000000    -3.891000000
H     5.401000000    -4.101000000    -4.038000000
C     6.319000000    -2.191000000    -4.804000000
H     6.635000000    -2.542000000    -5.783000000
C     6.641000000    -0.902000000    -4.410000000
H     7.185000000    -0.240000000    -5.080000000
C     6.259000000    -0.479000000    -3.171000000
O     6.656000000     0.748000000    -2.676000000
C     5.761000000     1.714000000    -2.226000000
C     6.043000000     2.660000000    -1.295000000
H     7.033000000     2.588000000    -0.851000000
C     5.186000000     3.624000000    -0.763000000
O     5.609000000     4.566000000     0.221000000
C     4.799000000     5.157000000     1.171000000
C     4.526000000     6.500000000     1.182000000
H     5.074000000     7.181000000     0.535000000
C     3.418000000     7.006000000     1.957000000
H     3.014000000     7.974000000     1.670000000
C     2.766000000     6.130000000     2.870000000
H     1.889000000     6.432000000     3.437000000
C     3.244000000     4.775000000     2.965000000
C     4.152000000     4.215000000     2.045000000
H     4.451000000     3.170000000     2.031000000
O     2.360000000     0.931000000     2.460000000
H     2.592000000     1.005000000     3.385000000
H     1.455000000     0.619000000     2.464000000
O     2.593000000    -8.560000000     3.138000000
H     2.067000000    -9.252000000     3.539000000
H     2.059000000    -8.247000000     2.408000000
O     6.648000000    -5.157000000     0.172000000
H     6.309000000    -4.352000000    -0.219000000
H     7.351000000    -5.431000000    -0.416000000
O     4.646000000    -6.079000000     2.087000000
H     4.136000000    -5.335000000     2.409000000
H     5.539000000    -5.743000000     2.015000000
O     8.287000000    -2.847000000     2.634000000
H     8.867000000    -2.957000000     3.388000000
H     7.405000000    -2.889000000     3.003000000
O     1.240000000    -3.105000000     7.566000000
H     2.010000000    -3.494000000     7.980000000
H     1.472000000    -3.045000000     6.639000000
O     3.427000000    -6.317000000     4.907000000
H     2.973000000    -6.668000000     4.141000000
H     3.247000000    -5.378000000     4.883000000
O     5.632000000    -2.678000000     3.178000000
H     5.813000000    -2.206000000     3.990000000
H     5.026000000    -3.373000000     3.434000000
O     6.393000000    -1.243000000     5.683000000
H     5.595000000    -0.717000000     5.749000000
H     6.698000000    -1.329000000     6.586000000
O     5.512000000    -8.456000000     3.886000000
H     4.625000000    -8.543000000     3.535000000
H     5.624000000    -7.516000000     4.023000000
O     3.139000000    -1.783000000     6.116000000
H     2.745000000    -2.443000000     5.546000000
H     2.951000000    -2.089000000     7.003000000
O     3.016000000     0.687000000     5.170000000
H     3.136000000     0.919000000     6.091000000
H     2.909000000    -0.264000000     5.175000000
O     3.945000000    -3.550000000     8.438000000
H     4.274000000    -4.184000000     7.801000000
H     4.068000000    -3.977000000     9.286000000
O     5.111000000    -5.326000000     6.780000000
H     6.032000000    -5.211000000     6.545000000
H     4.717000000    -5.738000000     6.012000000
O     0.921000000    -7.209000000     8.668000000
H     0.705000000    -6.843000000     7.810000000
H     0.534000000    -6.596000000     9.294000000
O    -1.420000000    -3.407000000     8.658000000
H    -2.111000000    -2.746000000     8.612000000
H    -0.896000000    -3.261000000     7.871000000
O     4.903000000    -0.083000000     1.814000000
H     5.002000000    -1.011000000     2.028000000
H     4.059000000    -0.028000000     1.366000000
O    -0.532000000    -8.645000000     5.391000000
H    -0.352000000    -7.715000000     5.254000000
H    -0.181000000    -9.075000000     4.611000000
O     0.914000000    -6.267000000     6.153000000
H     1.862000000    -6.399000000     6.186000000
H     0.792000000    -5.561000000     5.518000000
