201
-1225.70152
C    -5.407000000     1.280000000    -0.587000000
H    -5.281000000     2.240000000    -1.081000000
C    -4.708000000     0.989000000     0.608000000
C    -4.868000000    -0.354000000     1.076000000
H    -4.346000000    -0.671000000     1.976000000
C    -3.751000000     2.029000000     1.147000000
O    -3.966000000     3.354000000     0.657000000
H    -2.754000000     1.656000000     0.871000000
O    -3.856000000     2.095000000     2.579000000
C    -2.629000000     2.027000000     3.252000000
C    -2.191000000     0.820000000     3.791000000
H    -2.837000000    -0.049000000     3.699000000
C    -0.979000000     0.724000000     4.404000000
O    -0.559000000    -0.520000000     4.815000000
C    -0.128000000     1.897000000     4.318000000
C     1.247000000     1.760000000     4.983000000
H     1.559000000     2.714000000     5.413000000
C     2.297000000     1.303000000     4.089000000
C     3.165000000     2.166000000     3.442000000
H     3.061000000     3.241000000     3.563000000
H     1.233000000     1.139000000     5.881000000
C    -0.604000000     3.157000000     3.880000000
H     0.086000000     3.990000000     3.989000000
C    -1.867000000     3.207000000     3.343000000
C    -2.362000000     4.504000000     2.888000000
H    -1.933000000     5.337000000     3.450000000
H    -3.445000000     4.518000000     3.029000000
C    -1.972000000     4.606000000     1.397000000
C    -0.741000000     5.053000000     0.980000000
H    -0.112000000     5.528000000     1.729000000
C    -2.802000000     4.004000000     0.433000000
C    -2.439000000     3.975000000    -0.860000000
H    -3.172000000     3.579000000    -1.558000000
C    -1.203000000     4.425000000    -1.282000000
O    -0.743000000     4.124000000    -2.540000000
C     0.021000000     2.935000000    -2.698000000
C    -0.380000000     1.920000000    -3.803000000
C     0.563000000     0.989000000    -4.321000000
H     1.561000000     0.824000000    -3.924000000
C    -1.731000000     1.845000000    -4.268000000
H    -2.489000000     2.549000000    -3.933000000
O     1.375000000     3.334000000    -2.888000000
H    -0.008000000     2.347000000    -1.768000000
C    -0.291000000     4.918000000    -0.305000000
C     1.108000000     5.371000000    -0.626000000
H     1.466000000     5.955000000     0.224000000
H     1.115000000     5.934000000    -1.562000000
C     2.144000000     4.240000000    -0.693000000
C     3.084000000     4.063000000     0.352000000
H     3.024000000     4.666000000     1.255000000
C     2.149000000     3.332000000    -1.764000000
C     3.083000000     2.309000000    -1.818000000
H     2.937000000     1.506000000    -2.535000000
C     3.959000000     2.143000000    -0.723000000
O     4.834000000     1.093000000    -0.770000000
C     4.475000000    -0.146000000    -0.059000000
C     4.933000000    -1.298000000    -0.943000000
C     5.206000000    -1.272000000    -2.251000000
H     5.151000000    -0.311000000    -2.756000000
C     4.970000000    -2.588000000    -0.359000000
H     4.733000000    -2.612000000     0.702000000
O     5.050000000    -0.155000000     1.305000000
H     3.392000000    -0.334000000    -0.060000000
C     4.002000000     2.989000000     0.331000000
C     4.842000000     2.712000000     1.615000000
H     5.050000000     3.627000000     2.174000000
H     5.765000000     2.172000000     1.397000000
C     4.080000000     1.753000000     2.490000000
C     4.152000000     0.384000000     2.270000000
C     3.332000000    -0.499000000     2.935000000
H     3.446000000    -1.577000000     2.848000000
C     2.394000000    -0.067000000     3.856000000
O     1.661000000    -1.007000000     4.501000000
C     0.362000000    -1.243000000     3.942000000
H     0.284000000    -0.777000000     2.949000000
C     0.011000000    -2.773000000     3.734000000
C    -1.309000000    -3.196000000     3.934000000
H    -2.069000000    -2.550000000     4.366000000
C     0.925000000    -3.641000000     3.130000000
H     1.942000000    -3.275000000     3.018000000
C     0.553000000    -4.965000000     2.786000000
O     1.416000000    -5.894000000     2.236000000
C    -0.743000000    -5.364000000     3.033000000
H    -1.107000000    -6.357000000     2.782000000
C    -1.666000000    -4.525000000     3.573000000
O    -2.945000000    -5.061000000     3.659000000
C    -4.024000000    -4.259000000     3.494000000
C    -4.272000000    -3.805000000     2.225000000
H    -3.680000000    -4.131000000     1.373000000
C    -4.797000000    -4.012000000     4.589000000
H    -4.513000000    -4.360000000     5.579000000
C    -5.871000000    -3.114000000     4.455000000
H    -6.544000000    -2.948000000     5.293000000
C    -6.241000000    -2.749000000     3.140000000
H    -7.158000000    -2.189000000     2.973000000
C    -5.373000000    -2.966000000     2.110000000
O    -5.713000000    -2.621000000     0.844000000
C    -5.663000000    -1.322000000     0.388000000
C    -6.236000000    -0.994000000    -0.819000000
H    -6.702000000    -1.772000000    -1.418000000
C    -6.140000000     0.269000000    -1.295000000
O    -6.756000000     0.558000000    -2.492000000
C    -6.125000000     1.235000000    -3.517000000
C    -4.943000000     0.702000000    -4.036000000
H    -4.410000000    -0.081000000    -3.503000000
C    -6.812000000     2.201000000    -4.156000000
H    -7.726000000     2.664000000    -3.792000000
C    -6.325000000     2.721000000    -5.326000000
H    -6.878000000     3.473000000    -5.883000000
C    -5.147000000     2.206000000    -5.870000000
H    -4.783000000     2.695000000    -6.770000000
C    -4.456000000     1.241000000    -5.201000000
O    -3.319000000     0.713000000    -5.706000000
C    -2.027000000     0.908000000    -5.229000000
C    -1.106000000     0.026000000    -5.673000000
H    -1.420000000    -0.592000000    -6.510000000
C     0.180000000     0.031000000    -5.234000000
O     1.014000000    -1.012000000    -5.662000000
C     2.423000000    -0.951000000    -5.794000000
C     3.237000000    -1.752000000    -4.960000000
H     2.773000000    -2.506000000    -4.329000000
C     2.987000000     0.109000000    -6.512000000
H     2.334000000     0.733000000    -7.117000000
C     4.366000000     0.259000000    -6.628000000
H     4.793000000     0.955000000    -7.346000000
C     5.190000000    -0.671000000    -5.929000000
H     6.275000000    -0.654000000    -6.005000000
C     4.639000000    -1.633000000    -5.157000000
O     5.537000000    -2.378000000    -4.379000000
C     5.516000000    -2.415000000    -3.005000000
C     5.556000000    -3.594000000    -2.381000000
H     5.706000000    -4.521000000    -2.930000000
C     5.152000000    -3.754000000    -1.083000000
O     4.972000000    -5.006000000    -0.618000000
C     4.514000000    -5.256000000     0.654000000
C     5.352000000    -5.275000000     1.817000000
H     6.392000000    -5.005000000     1.647000000
C     4.915000000    -5.647000000     3.056000000
H     5.600000000    -5.697000000     3.899000000
C     3.550000000    -5.827000000     3.218000000
H     3.106000000    -6.128000000     4.163000000
C     2.666000000    -5.594000000     2.124000000
C     3.169000000    -5.383000000     0.888000000
H     2.484000000    -5.328000000     0.045000000
O    -0.066000000    -7.921000000    -6.060000000
H    -0.161000000    -7.459000000    -5.227000000
H     0.696000000    -7.516000000    -6.473000000
O     1.802000000    -7.287000000    -1.651000000
H     2.735000000    -7.484000000    -1.737000000
H     1.504000000    -7.847000000    -0.934000000
O    -3.554000000    -3.340000000    -1.954000000
H    -2.712000000    -3.266000000    -2.403000000
H    -4.203000000    -3.304000000    -2.656000000
O    -1.604000000    -6.451000000    -0.749000000
H    -0.862000000    -6.904000000    -0.349000000
H    -1.366000000    -5.524000000    -0.713000000
O    -0.170000000    -2.589000000    -8.689000000
H    -0.212000000    -2.925000000    -7.794000000
H     0.369000000    -3.225000000    -9.158000000
O    -6.381000000    -2.860000000    -3.534000000
H    -5.514000000    -2.630000000    -3.871000000
H    -6.991000000    -2.489000000    -4.171000000
O    -4.228000000    -5.705000000    -0.168000000
H    -3.366000000    -6.032000000    -0.425000000
H    -4.419000000    -5.012000000    -0.799000000
O    -2.580000000    -4.915000000    -8.821000000
H    -2.141000000    -5.586000000    -9.343000000
H    -2.175000000    -4.980000000    -7.956000000
O    -0.777000000    -8.911000000    -2.393000000
H    -1.275000000    -8.309000000    -2.946000000
H    -0.655000000    -8.435000000    -1.571000000
O     0.253000000    -4.228000000    -6.493000000
H     0.715000000    -4.998000000    -6.162000000
H    -0.285000000    -3.936000000    -5.757000000
O    -3.111000000    -7.166000000    -6.263000000
H    -3.094000000    -6.420000000    -5.664000000
H    -2.189000000    -7.338000000    -6.458000000
O     4.588000000    -5.444000000    -5.740000000
H     5.090000000    -6.132000000    -5.304000000
H     4.007000000    -5.103000000    -5.060000000
O    -1.478000000    -3.914000000    -0.200000000
H    -0.724000000    -3.324000000    -0.213000000
H    -2.165000000    -3.435000000    -0.664000000
O    -0.056000000    -6.551000000    -3.567000000
H     0.615000000    -6.851000000    -2.955000000
H     0.067000000    -5.603000000    -3.611000000
O     2.635000000    -7.273000000    -6.917000000
H     2.945000000    -6.748000000    -6.179000000
H     2.584000000    -6.655000000    -7.646000000
O     2.849000000    -5.162000000    -3.790000000
H     2.064000000    -4.615000000    -3.748000000
H     2.566000000    -6.012000000    -3.455000000
O    -5.023000000    -6.210000000    -3.690000000
H    -4.312000000    -6.772000000    -3.383000000
H    -4.593000000    -5.388000000    -3.926000000
O    -4.051000000    -2.392000000    -4.747000000
H    -3.130000000    -2.146000000    -4.833000000
H    -4.265000000    -2.816000000    -5.578000000
O    -2.517000000    -5.331000000    -4.437000000
H    -2.368000000    -4.400000000    -4.603000000
H    -1.749000000    -5.611000000    -3.939000000
