201
-1228.93860
C    -2.108000000    -3.993000000     2.971000000
H    -2.228000000    -4.614000000     2.087000000
C    -2.655000000    -2.714000000     2.890000000
C    -2.538000000    -1.919000000     4.004000000
H    -2.980000000    -0.927000000     4.033000000
C    -3.158000000    -2.037000000     1.599000000
O    -3.650000000    -2.996000000     0.634000000
H    -2.358000000    -1.457000000     1.116000000
O    -4.301000000    -1.168000000     1.917000000
C    -4.554000000    -0.064000000     1.115000000
C    -4.095000000     1.108000000     1.660000000
H    -3.780000000     1.080000000     2.700000000
C    -4.085000000     2.301000000     0.959000000
O    -3.474000000     3.335000000     1.545000000
C    -4.412000000     2.345000000    -0.448000000
C    -4.146000000     3.569000000    -1.328000000
H    -4.721000000     3.317000000    -2.222000000
C    -2.633000000     3.601000000    -1.686000000
C    -2.234000000     3.235000000    -2.971000000
H    -2.964000000     2.790000000    -3.641000000
H    -4.534000000     4.532000000    -0.991000000
C    -4.849000000     1.118000000    -0.956000000
H    -5.077000000     1.053000000    -2.017000000
C    -4.961000000    -0.055000000    -0.168000000
C    -5.417000000    -1.302000000    -0.890000000
H    -6.124000000    -1.070000000    -1.690000000
H    -5.971000000    -2.004000000    -0.263000000
C    -4.142000000    -1.992000000    -1.489000000
C    -3.719000000    -1.790000000    -2.835000000
H    -4.284000000    -1.122000000    -3.480000000
C    -3.410000000    -2.859000000    -0.681000000
C    -2.222000000    -3.457000000    -1.149000000
H    -1.551000000    -3.951000000    -0.451000000
C    -1.833000000    -3.277000000    -2.485000000
O    -0.783000000    -3.892000000    -3.003000000
C     0.467000000    -3.157000000    -2.792000000
C     1.580000000    -3.974000000    -2.185000000
C     2.892000000    -3.899000000    -2.722000000
H     3.033000000    -3.275000000    -3.601000000
C     1.408000000    -4.701000000    -0.986000000
H     0.400000000    -4.727000000    -0.582000000
O     0.794000000    -2.728000000    -4.108000000
H     0.284000000    -2.229000000    -2.230000000
C    -2.618000000    -2.489000000    -3.323000000
C    -2.042000000    -2.166000000    -4.720000000
H    -2.719000000    -1.727000000    -5.455000000
H    -1.603000000    -3.045000000    -5.198000000
C    -0.841000000    -1.183000000    -4.638000000
C    -1.149000000     0.237000000    -4.745000000
H    -2.135000000     0.546000000    -5.082000000
C     0.490000000    -1.469000000    -4.446000000
C     1.498000000    -0.527000000    -4.278000000
H     2.499000000    -0.832000000    -3.984000000
C     1.108000000     0.807000000    -4.241000000
O     2.059000000     1.737000000    -4.059000000
C     2.000000000     2.336000000    -2.735000000
C     3.372000000     2.442000000    -2.131000000
C     4.313000000     1.460000000    -2.504000000
H     4.132000000     0.760000000    -3.315000000
C     3.718000000     3.366000000    -1.166000000
H     3.013000000     4.175000000    -0.994000000
O     1.302000000     3.619000000    -2.754000000
H     1.500000000     1.626000000    -2.060000000
C    -0.139000000     1.187000000    -4.582000000
C    -0.472000000     2.655000000    -4.738000000
H    -1.308000000     2.516000000    -5.427000000
H     0.389000000     3.174000000    -5.163000000
C    -0.928000000     3.241000000    -3.408000000
C    -0.021000000     3.740000000    -2.498000000
C    -0.394000000     4.374000000    -1.307000000
H     0.293000000     4.842000000    -0.607000000
C    -1.679000000     4.205000000    -0.885000000
O    -1.939000000     4.595000000     0.339000000
C    -2.076000000     3.503000000     1.280000000
H    -1.780000000     2.536000000     0.847000000
C    -1.176000000     3.871000000     2.494000000
C    -1.581000000     3.431000000     3.781000000
H    -2.460000000     2.794000000     3.822000000
C    -0.093000000     4.781000000     2.415000000
H     0.371000000     5.205000000     1.528000000
C     0.642000000     5.044000000     3.585000000
O     1.693000000     5.822000000     3.502000000
C     0.223000000     4.530000000     4.839000000
H     0.694000000     4.758000000     5.792000000
C    -0.864000000     3.672000000     4.981000000
O    -1.199000000     3.176000000     6.178000000
C    -1.928000000     2.017000000     6.336000000
C    -1.487000000     0.708000000     6.090000000
H    -0.514000000     0.440000000     5.687000000
C    -3.145000000     2.173000000     6.963000000
H    -3.562000000     3.124000000     7.282000000
C    -3.948000000     1.104000000     7.314000000
H    -4.907000000     1.273000000     7.798000000
C    -3.509000000    -0.144000000     7.099000000
H    -4.086000000    -1.021000000     7.380000000
C    -2.309000000    -0.355000000     6.404000000
O    -1.815000000    -1.604000000     6.274000000
C    -1.965000000    -2.395000000     5.167000000
C    -1.328000000    -3.635000000     5.206000000
H    -0.792000000    -3.991000000     6.082000000
C    -1.447000000    -4.462000000     4.096000000
O    -1.119000000    -5.816000000     4.184000000
C    -0.628000000    -6.400000000     3.043000000
C     0.573000000    -5.885000000     2.544000000
H     1.124000000    -5.083000000     3.028000000
C    -1.439000000    -7.313000000     2.286000000
H    -2.378000000    -7.697000000     2.675000000
C    -0.878000000    -7.652000000     0.982000000
H    -1.505000000    -8.270000000     0.345000000
C     0.391000000    -7.158000000     0.595000000
H     0.800000000    -7.610000000    -0.305000000
C     1.129000000    -6.315000000     1.374000000
O     2.332000000    -5.888000000     0.896000000
C     2.486000000    -5.209000000    -0.257000000
C     3.765000000    -5.013000000    -0.748000000
H     4.674000000    -5.355000000    -0.261000000
C     3.963000000    -4.339000000    -1.941000000
O     5.278000000    -4.138000000    -2.400000000
C     5.642000000    -3.010000000    -3.071000000
C     5.801000000    -1.841000000    -2.342000000
H     5.627000000    -1.920000000    -1.272000000
C     5.822000000    -2.996000000    -4.393000000
H     5.713000000    -3.860000000    -5.044000000
C     6.108000000    -1.804000000    -5.068000000
H     6.412000000    -1.814000000    -6.112000000
C     6.432000000    -0.658000000    -4.288000000
H     6.759000000     0.263000000    -4.762000000
C     6.234000000    -0.686000000    -2.926000000
O     6.407000000     0.339000000    -2.037000000
C     5.555000000     1.430000000    -1.874000000
C     5.770000000     2.202000000    -0.749000000
H     6.739000000     2.063000000    -0.276000000
C     4.880000000     3.212000000    -0.477000000
O     5.127000000     4.071000000     0.634000000
C     4.263000000     5.087000000     0.980000000
C     4.324000000     6.292000000     0.320000000
H     5.042000000     6.500000000    -0.469000000
C     3.504000000     7.342000000     0.757000000
H     3.531000000     8.317000000     0.278000000
C     2.599000000     7.220000000     1.799000000
H     2.091000000     8.063000000     2.260000000
C     2.512000000     5.939000000     2.390000000
C     3.259000000     4.864000000     1.946000000
H     3.010000000     3.929000000     2.441000000
O     7.347000000    -2.578000000     6.422000000
H     6.639000000    -3.002000000     5.938000000
H     7.575000000    -1.814000000     5.893000000
O     2.992000000     1.135000000     3.511000000
H     2.286000000     1.111000000     2.865000000
H     2.827000000     0.379000000     4.075000000
O     4.591000000    -5.800000000     3.133000000
H     4.371000000    -5.299000000     2.347000000
H     4.672000000    -5.141000000     3.822000000
O     7.474000000     0.526000000     2.650000000
H     7.898000000     1.068000000     1.985000000
H     8.181000000    -0.011000000     3.008000000
O     4.282000000    -7.598000000     5.361000000
H     4.503000000    -7.070000000     4.594000000
H     4.461000000    -7.024000000     6.106000000
O     7.890000000    -4.518000000     2.389000000
H     8.044000000    -5.080000000     1.629000000
H     7.451000000    -3.747000000     2.030000000
O     7.591000000    -5.479000000    -0.270000000
H     8.295000000    -5.539000000    -0.916000000
H     7.162000000    -6.334000000    -0.304000000
O     8.919000000    -1.087000000     4.165000000
H     9.363000000    -1.160000000     5.009000000
H     9.016000000    -1.952000000     3.768000000
O     2.250000000    -1.021000000     5.324000000
H     2.611000000    -1.703000000     4.758000000
H     1.815000000    -1.500000000     6.029000000
O     2.559000000    -4.945000000     5.232000000
H     2.723000000    -4.296000000     4.548000000
H     1.627000000    -5.146000000     5.153000000
O     7.520000000    -8.144000000     2.052000000
H     7.411000000    -8.714000000     2.813000000
H     6.782000000    -7.536000000     2.100000000
O     7.435000000    -7.219000000     4.721000000
H     7.310000000    -6.359000000     4.320000000
H     6.996000000    -7.154000000     5.569000000
O     5.693000000    -3.499000000     4.550000000
H     4.854000000    -3.084000000     4.349000000
H     6.121000000    -3.597000000     3.699000000
O     4.376000000     0.694000000     6.528000000
H     3.937000000     0.120000000     5.900000000
H     4.640000000     0.111000000     7.240000000
O     5.210000000     2.310000000     3.952000000
H     4.310000000     1.987000000     3.927000000
H     5.728000000     1.609000000     3.558000000
O     1.262000000    -2.630000000     7.133000000
H     1.754000000    -3.437000000     7.286000000
H     0.638000000    -2.589000000     7.858000000
O     4.486000000    -5.516000000     7.233000000
H     4.075000000    -5.545000000     8.097000000
H     3.781000000    -5.254000000     6.641000000
O     6.536000000    -2.105000000     1.861000000
H     6.475000000    -1.189000000     2.130000000
H     5.630000000    -2.414000000     1.856000000
O     8.211000000    -2.722000000    -1.038000000
H     7.784000000    -3.574000000    -1.120000000
H     7.837000000    -2.341000000    -0.244000000
