201
-1286.63368
C    -1.713000000    -4.251000000     2.376000000
H    -1.848000000    -4.794000000     1.444000000
C    -2.530000000    -3.126000000     2.626000000
C    -2.395000000    -2.484000000     3.852000000
H    -2.853000000    -1.516000000     4.035000000
C    -3.215000000    -2.436000000     1.480000000
O    -3.752000000    -3.335000000     0.533000000
H    -2.474000000    -1.789000000     0.989000000
O    -4.351000000    -1.634000000     1.866000000
C    -4.489000000    -0.354000000     1.323000000
C    -4.090000000     0.720000000     2.026000000
H    -3.819000000     0.602000000     3.072000000
C    -3.995000000     1.939000000     1.409000000
O    -3.364000000     3.006000000     2.079000000
C    -4.437000000     2.144000000     0.076000000
C    -4.321000000     3.480000000    -0.674000000
H    -5.055000000     3.456000000    -1.482000000
C    -2.937000000     3.626000000    -1.216000000
C    -2.645000000     3.324000000    -2.563000000
H    -3.414000000     2.983000000    -3.252000000
H    -4.616000000     4.320000000    -0.041000000
C    -4.903000000     1.073000000    -0.630000000
H    -5.319000000     1.231000000    -1.621000000
C    -4.961000000    -0.165000000    -0.010000000
C    -5.341000000    -1.364000000    -0.883000000
H    -6.045000000    -1.056000000    -1.659000000
H    -5.940000000    -2.087000000    -0.325000000
C    -4.068000000    -1.980000000    -1.457000000
C    -3.733000000    -1.751000000    -2.805000000
H    -4.307000000    -1.101000000    -3.460000000
C    -3.450000000    -3.043000000    -0.782000000
C    -2.322000000    -3.641000000    -1.386000000
H    -1.940000000    -4.444000000    -0.760000000
C    -1.897000000    -3.273000000    -2.615000000
O    -0.735000000    -3.727000000    -3.036000000
C     0.444000000    -2.853000000    -2.939000000
C     1.662000000    -3.516000000    -2.444000000
C     2.838000000    -2.831000000    -2.491000000
H     2.936000000    -1.870000000    -2.990000000
C     1.623000000    -4.816000000    -1.774000000
H     0.718000000    -5.406000000    -1.891000000
O     0.664000000    -2.194000000    -4.221000000
H     0.165000000    -2.189000000    -2.108000000
C    -2.538000000    -2.233000000    -3.317000000
C    -2.048000000    -1.751000000    -4.709000000
H    -2.897000000    -1.284000000    -5.212000000
H    -1.620000000    -2.637000000    -5.183000000
C    -1.080000000    -0.647000000    -4.659000000
C    -1.502000000     0.704000000    -4.727000000
H    -2.583000000     0.809000000    -4.784000000
C     0.235000000    -0.931000000    -4.436000000
C     1.107000000     0.130000000    -4.417000000
H     2.151000000    -0.139000000    -4.275000000
C     0.705000000     1.435000000    -4.404000000
O     1.675000000     2.389000000    -4.139000000
C     1.644000000     2.931000000    -2.785000000
C     3.093000000     3.233000000    -2.393000000
C     4.108000000     2.410000000    -2.918000000
H     3.868000000     1.645000000    -3.651000000
C     3.365000000     4.033000000    -1.328000000
H     2.631000000     4.707000000    -0.893000000
O     0.920000000     4.228000000    -2.762000000
H     1.183000000     2.267000000    -2.039000000
C    -0.637000000     1.778000000    -4.671000000
C    -1.135000000     3.209000000    -4.557000000
H    -1.995000000     3.235000000    -5.229000000
H    -0.481000000     3.991000000    -4.949000000
C    -1.383000000     3.531000000    -3.110000000
C    -0.388000000     4.032000000    -2.336000000
C    -0.624000000     4.322000000    -0.991000000
H     0.054000000     4.899000000    -0.367000000
C    -1.871000000     4.046000000    -0.404000000
O    -1.980000000     4.345000000     0.975000000
C    -1.963000000     3.143000000     1.835000000
H    -1.659000000     2.256000000     1.259000000
C    -1.169000000     3.395000000     3.101000000
C    -1.432000000     2.608000000     4.177000000
H    -2.102000000     1.753000000     4.144000000
C    -0.052000000     4.215000000     3.038000000
H     0.119000000     4.845000000     2.169000000
C     0.832000000     4.276000000     4.127000000
O     1.989000000     5.045000000     4.119000000
C     0.462000000     3.599000000     5.267000000
H     1.140000000     3.760000000     6.101000000
C    -0.562000000     2.652000000     5.264000000
O    -0.588000000     1.782000000     6.314000000
C    -1.480000000     0.822000000     6.482000000
C    -1.117000000    -0.506000000     6.295000000
H    -0.140000000    -0.666000000     5.846000000
C    -2.780000000     1.184000000     6.874000000
H    -3.021000000     2.180000000     7.237000000
C    -3.692000000     0.180000000     7.093000000
H    -4.686000000     0.417000000     7.461000000
C    -3.358000000    -1.158000000     6.875000000
H    -4.122000000    -1.901000000     7.093000000
C    -2.036000000    -1.454000000     6.502000000
O    -1.744000000    -2.753000000     6.206000000
C    -1.794000000    -3.156000000     4.934000000
C    -1.024000000    -4.318000000     4.713000000
H    -0.465000000    -4.728000000     5.550000000
C    -0.950000000    -4.832000000     3.425000000
O    -0.261000000    -6.014000000     3.303000000
C    -0.008000000    -6.622000000     2.114000000
C     1.081000000    -6.232000000     1.351000000
H     1.612000000    -5.349000000     1.698000000
C    -0.767000000    -7.756000000     1.790000000
H    -1.585000000    -8.054000000     2.440000000
C    -0.325000000    -8.569000000     0.687000000
H    -0.818000000    -9.517000000     0.484000000
C     0.718000000    -8.112000000    -0.169000000
H     1.019000000    -8.678000000    -1.046000000
C     1.395000000    -6.887000000     0.121000000
O     2.596000000    -6.598000000    -0.643000000
C     2.715000000    -5.419000000    -1.222000000
C     3.885000000    -4.757000000    -1.319000000
H     4.821000000    -5.127000000    -0.909000000
C     3.950000000    -3.434000000    -1.859000000
O     5.146000000    -2.740000000    -1.759000000
C     5.616000000    -1.832000000    -2.639000000
C     5.881000000    -0.529000000    -2.217000000
H     5.651000000    -0.256000000    -1.190000000
C     5.912000000    -2.244000000    -3.931000000
H     5.827000000    -3.286000000    -4.230000000
C     6.413000000    -1.369000000    -4.873000000
H     6.675000000    -1.726000000    -5.866000000
C     6.497000000    -0.027000000    -4.578000000
H     6.839000000     0.699000000    -5.312000000
C     6.275000000     0.388000000    -3.250000000
O     6.404000000     1.777000000    -3.015000000
C     5.407000000     2.549000000    -2.418000000
C     5.685000000     3.381000000    -1.333000000
H     6.725000000     3.390000000    -1.018000000
C     4.648000000     4.155000000    -0.826000000
O     4.898000000     4.956000000     0.209000000
C     4.002000000     5.689000000     1.025000000
C     3.701000000     6.988000000     0.810000000
H     4.095000000     7.485000000    -0.073000000
C     2.955000000     7.666000000     1.770000000
H     2.604000000     8.671000000     1.553000000
C     2.331000000     7.032000000     2.848000000
H     1.641000000     7.511000000     3.538000000
C     2.542000000     5.669000000     3.001000000
C     3.442000000     5.001000000     2.143000000
H     3.770000000     3.978000000     2.310000000
O     4.967000000    -0.979000000     1.157000000
H     5.685000000    -1.381000000     0.669000000
H     4.518000000    -1.714000000     1.574000000
O     2.199000000    -4.865000000     4.605000000
H     1.365000000    -5.171000000     4.249000000
H     2.253000000    -3.948000000     4.336000000
O     5.177000000     1.403000000     2.227000000
H     4.277000000     1.727000000     2.217000000
H     5.100000000     0.476000000     2.003000000
O     5.734000000    -0.956000000     4.685000000
H     6.317000000    -0.665000000     5.387000000
H     4.991000000    -0.354000000     4.726000000
O     4.001000000    -7.864000000     2.025000000
H     3.081000000    -7.930000000     2.280000000
H     4.183000000    -6.925000000     2.028000000
O     7.680000000    -5.460000000     5.396000000
H     8.233000000    -4.878000000     5.917000000
H     6.995000000    -4.890000000     5.046000000
O     2.157000000    -1.037000000     8.686000000
H     2.915000000    -1.133000000     9.262000000
H     2.385000000    -1.540000000     7.904000000
O     6.593000000     2.779000000     4.199000000
H     6.121000000     2.497000000     3.416000000
H     6.223000000     2.249000000     4.905000000
O     7.124000000    -5.343000000     1.162000000
H     7.619000000    -6.155000000     1.269000000
H     6.318000000    -5.486000000     1.658000000
O     2.070000000     1.141000000     7.067000000
H     1.900000000     0.664000000     7.879000000
H     1.204000000     1.281000000     6.685000000
O     7.680000000     2.106000000     0.953000000
H     8.338000000     1.722000000     1.532000000
H     6.848000000     1.750000000     1.266000000
O     2.562000000     1.801000000     2.945000000
H     1.911000000     2.050000000     3.601000000
H     2.320000000     0.910000000     2.694000000
O     3.105000000    -2.424000000     6.651000000
H     3.435000000    -3.322000000     6.682000000
H     3.102000000    -2.202000000     5.720000000
O     7.740000000    -0.456000000     2.645000000
H     7.196000000    -0.627000000     3.415000000
H     7.535000000    -1.172000000     2.044000000
O     4.192000000     1.560000000     5.435000000
H     3.566000000     1.283000000     6.104000000
H     3.687000000     1.565000000     4.622000000
O     5.590000000    -3.559000000     4.696000000
H     4.710000000    -3.622000000     5.067000000
H     5.691000000    -2.633000000     4.476000000
O     7.817000000    -2.694000000     0.817000000
H     8.240000000    -2.576000000    -0.033000000
H     7.702000000    -3.641000000     0.898000000
O     3.993000000    -5.635000000     6.562000000
H     3.368000000    -5.502000000     5.850000000
H     4.172000000    -6.576000000     6.551000000
O     4.642000000    -5.375000000     2.675000000
H     4.981000000    -5.237000000     3.559000000
H     4.150000000    -4.577000000     2.480000000
