201
-1257.50824
C    -3.102000000    -4.130000000     2.247000000
H    -3.358000000    -4.681000000     1.345000000
C    -3.268000000    -2.729000000     2.374000000
C    -2.739000000    -2.126000000     3.549000000
H    -2.673000000    -1.049000000     3.680000000
C    -3.736000000    -1.889000000     1.176000000
O    -4.326000000    -2.758000000     0.187000000
H    -2.796000000    -1.471000000     0.788000000
O    -4.686000000    -0.865000000     1.514000000
C    -4.482000000     0.396000000     0.990000000
C    -3.874000000     1.395000000     1.716000000
H    -3.746000000     1.263000000     2.788000000
C    -3.575000000     2.658000000     1.230000000
O    -2.935000000     3.550000000     2.093000000
C    -3.963000000     2.934000000    -0.095000000
C    -3.738000000     4.301000000    -0.781000000
H    -4.439000000     4.515000000    -1.591000000
C    -2.255000000     4.356000000    -1.190000000
C    -1.966000000     4.095000000    -2.535000000
H    -2.824000000     3.889000000    -3.170000000
H    -3.860000000     5.073000000    -0.018000000
C    -4.633000000     1.929000000    -0.860000000
H    -4.855000000     2.279000000    -1.865000000
C    -4.912000000     0.681000000    -0.355000000
C    -5.539000000    -0.419000000    -1.219000000
H    -6.192000000    -0.004000000    -1.989000000
H    -6.182000000    -1.069000000    -0.621000000
C    -4.437000000    -1.300000000    -1.759000000
C    -3.840000000    -0.919000000    -2.949000000
H    -4.238000000    -0.047000000    -3.461000000
C    -3.967000000    -2.415000000    -1.106000000
C    -2.902000000    -3.187000000    -1.666000000
H    -2.567000000    -4.131000000    -1.243000000
C    -2.292000000    -2.777000000    -2.854000000
O    -1.162000000    -3.509000000    -3.219000000
C     0.048000000    -2.802000000    -3.245000000
C     1.158000000    -3.671000000    -2.652000000
C     2.563000000    -3.426000000    -2.831000000
H     2.917000000    -2.670000000    -3.526000000
C     0.779000000    -4.639000000    -1.662000000
H    -0.259000000    -4.658000000    -1.341000000
O     0.406000000    -2.126000000    -4.494000000
H    -0.028000000    -2.052000000    -2.444000000
C    -2.826000000    -1.706000000    -3.566000000
C    -2.279000000    -1.168000000    -4.945000000
H    -3.016000000    -0.631000000    -5.547000000
H    -2.004000000    -2.036000000    -5.548000000
C    -1.069000000    -0.271000000    -4.718000000
C    -1.320000000     1.118000000    -4.743000000
H    -2.300000000     1.500000000    -5.019000000
C     0.215000000    -0.792000000    -4.559000000
C     1.250000000     0.057000000    -4.275000000
H     2.220000000    -0.341000000    -3.990000000
C     0.986000000     1.442000000    -4.298000000
O     2.118000000     2.146000000    -3.945000000
C     2.191000000     2.576000000    -2.590000000
C     3.601000000     2.446000000    -1.983000000
C     4.539000000     1.539000000    -2.538000000
H     4.324000000     0.942000000    -3.421000000
C     3.889000000     3.120000000    -0.775000000
H     3.233000000     3.835000000    -0.284000000
O     1.683000000     3.943000000    -2.592000000
H     1.546000000     2.017000000    -1.895000000
C    -0.236000000     1.986000000    -4.499000000
C    -0.432000000     3.477000000    -4.393000000
H    -1.210000000     3.691000000    -5.128000000
H     0.484000000     3.979000000    -4.711000000
C    -0.666000000     3.951000000    -2.994000000
C     0.390000000     4.030000000    -2.143000000
C     0.132000000     4.483000000    -0.780000000
H     0.969000000     4.733000000    -0.132000000
C    -1.133000000     4.496000000    -0.306000000
O    -1.287000000     4.780000000     1.063000000
C    -1.509000000     3.664000000     1.848000000
H    -1.223000000     2.759000000     1.291000000
C    -0.710000000     3.719000000     3.150000000
C    -1.312000000     3.141000000     4.289000000
H    -2.330000000     2.768000000     4.210000000
C     0.636000000     4.234000000     3.151000000
H     1.105000000     4.677000000     2.277000000
C     1.232000000     4.252000000     4.381000000
O     2.446000000     4.940000000     4.477000000
C     0.715000000     3.612000000     5.516000000
H     1.389000000     3.470000000     6.356000000
C    -0.598000000     3.114000000     5.478000000
O    -1.150000000     2.498000000     6.583000000
C    -1.786000000     1.302000000     6.651000000
C    -1.314000000     0.150000000     6.060000000
H    -0.438000000     0.168000000     5.416000000
C    -2.713000000     1.165000000     7.691000000
H    -3.065000000     2.014000000     8.270000000
C    -3.376000000    -0.058000000     7.836000000
H    -4.222000000    -0.154000000     8.513000000
C    -3.063000000    -1.161000000     7.027000000
H    -3.586000000    -2.113000000     6.998000000
C    -1.941000000    -1.044000000     6.201000000
O    -1.419000000    -2.191000000     5.544000000
C    -2.093000000    -2.789000000     4.515000000
C    -1.931000000    -4.128000000     4.339000000
H    -1.355000000    -4.758000000     5.011000000
C    -2.442000000    -4.854000000     3.273000000
O    -2.055000000    -6.152000000     3.051000000
C    -1.582000000    -6.535000000     1.821000000
C    -0.294000000    -6.217000000     1.409000000
H     0.340000000    -5.483000000     1.900000000
C    -2.239000000    -7.475000000     1.046000000
H    -3.187000000    -7.902000000     1.360000000
C    -1.743000000    -8.009000000    -0.142000000
H    -2.363000000    -8.622000000    -0.792000000
C    -0.477000000    -7.587000000    -0.614000000
H    -0.004000000    -8.063000000    -1.469000000
C     0.252000000    -6.746000000     0.243000000
O     1.549000000    -6.402000000    -0.087000000
C     1.794000000    -5.430000000    -0.997000000
C     3.136000000    -5.181000000    -1.228000000
H     3.945000000    -5.752000000    -0.778000000
C     3.515000000    -4.247000000    -2.152000000
O     4.843000000    -4.101000000    -2.470000000
C     5.423000000    -2.982000000    -3.161000000
C     5.670000000    -1.839000000    -2.383000000
H     5.311000000    -1.781000000    -1.359000000
C     5.905000000    -3.081000000    -4.419000000
H     5.617000000    -3.940000000    -5.020000000
C     6.705000000    -1.991000000    -5.018000000
H     6.972000000    -2.088000000    -6.068000000
C     6.946000000    -0.873000000    -4.245000000
H     7.386000000     0.059000000    -4.592000000
C     6.396000000    -0.773000000    -2.971000000
O     6.599000000     0.426000000    -2.346000000
C     5.704000000     1.265000000    -1.851000000
C     5.974000000     1.851000000    -0.638000000
H     6.846000000     1.502000000    -0.090000000
C     5.071000000     2.734000000    -0.081000000
O     5.278000000     3.105000000     1.221000000
C     4.778000000     4.202000000     1.810000000
C     4.898000000     5.458000000     1.269000000
H     5.585000000     5.498000000     0.428000000
C     4.284000000     6.580000000     1.837000000
H     4.297000000     7.590000000     1.435000000
C     3.482000000     6.319000000     2.999000000
H     2.894000000     7.081000000     3.505000000
C     3.368000000     5.076000000     3.502000000
C     3.953000000     3.981000000     2.927000000
H     3.777000000     2.952000000     3.232000000
O     0.276000000    -7.593000000     4.235000000
H    -0.283000000    -6.888000000     3.909000000
H    -0.216000000    -7.973000000     4.963000000
O     6.631000000    -1.696000000     0.993000000
H     5.831000000    -1.457000000     1.462000000
H     7.333000000    -1.273000000     1.487000000
O     5.287000000    -3.900000000     3.925000000
H     5.287000000    -4.646000000     3.325000000
H     4.675000000    -3.277000000     3.532000000
O     5.267000000     0.114000000     3.331000000
H     4.697000000    -0.615000000     3.085000000
H     4.889000000     0.450000000     4.143000000
O     3.499000000     1.418000000     5.626000000
H     3.356000000     2.358000000     5.744000000
H     3.571000000     1.073000000     6.516000000
O     8.855000000    -3.464000000     5.480000000
H     8.073000000    -2.944000000     5.292000000
H     9.093000000    -3.222000000     6.375000000
O     6.515000000    -4.512000000     1.230000000
H     7.472000000    -4.486000000     1.241000000
H     6.250000000    -3.594000000     1.292000000
O     2.190000000    -0.812000000     8.420000000
H     3.120000000    -1.022000000     8.500000000
H     1.780000000    -1.636000000     8.158000000
O     4.798000000    -6.165000000     5.666000000
H     5.572000000    -6.237000000     6.224000000
H     5.038000000    -5.514000000     5.007000000
O     7.186000000     2.211000000     3.727000000
H     6.553000000     1.666000000     3.260000000
H     7.863000000     1.598000000     4.016000000
O     6.462000000    -7.510000000     0.507000000
H     7.064000000    -8.030000000     1.039000000
H     6.632000000    -6.605000000     0.769000000
O     1.875000000     1.904000000     1.272000000
H     1.689000000     1.009000000     0.987000000
H     2.830000000     1.942000000     1.334000000
O     3.522000000    -1.492000000     5.227000000
H     3.281000000    -0.572000000     5.116000000
H     3.163000000    -1.929000000     4.455000000
O     3.117000000    -3.166000000     7.532000000
H     3.680000000    -2.634000000     6.970000000
H     2.622000000    -3.716000000     6.924000000
O     6.674000000    -1.989000000     5.470000000
H     6.279000000    -2.778000000     5.098000000
H     6.008000000    -1.311000000     5.358000000
O     3.831000000    -8.624000000     1.948000000
H     4.472000000    -8.150000000     1.418000000
H     3.622000000    -8.025000000     2.664000000
O     1.998000000    -4.742000000     5.369000000
H     2.594000000    -5.456000000     5.142000000
H     1.952000000    -4.207000000     4.577000000
O     8.295000000    -3.064000000    -1.292000000
H     7.831000000    -3.712000000    -1.821000000
H     7.632000000    -2.726000000    -0.690000000
O     3.004000000    -5.892000000     2.904000000
H     2.568000000    -6.096000000     2.076000000
H     3.013000000    -4.936000000     2.941000000
