201
-1262.62441
C    -1.271000000    -4.716000000     1.008000000
H    -1.179000000    -4.846000000    -0.068000000
C    -2.232000000    -3.787000000     1.524000000
C    -2.381000000    -3.509000000     2.907000000
H    -3.208000000    -2.875000000     3.215000000
C    -2.948000000    -2.993000000     0.426000000
O    -3.063000000    -3.694000000    -0.851000000
H    -2.356000000    -2.091000000     0.213000000
O    -4.217000000    -2.590000000     0.835000000
C    -4.470000000    -1.277000000     0.702000000
C    -4.076000000    -0.364000000     1.718000000
H    -3.791000000    -0.630000000     2.733000000
C    -4.092000000     1.003000000     1.459000000
O    -3.685000000     1.911000000     2.430000000
C    -4.716000000     1.523000000     0.316000000
C    -4.707000000     3.054000000     0.040000000
H    -5.431000000     3.173000000    -0.768000000
C    -3.327000000     3.589000000    -0.455000000
C    -2.992000000     3.523000000    -1.763000000
H    -3.671000000     3.056000000    -2.472000000
H    -5.074000000     3.541000000     0.946000000
C    -5.049000000     0.626000000    -0.715000000
H    -5.461000000     1.066000000    -1.620000000
C    -4.786000000    -0.737000000    -0.554000000
C    -5.029000000    -1.668000000    -1.697000000
H    -5.761000000    -1.237000000    -2.383000000
H    -5.479000000    -2.599000000    -1.345000000
C    -3.727000000    -1.963000000    -2.446000000
C    -3.326000000    -1.310000000    -3.602000000
H    -4.034000000    -0.653000000    -4.101000000
C    -2.815000000    -2.971000000    -1.953000000
C    -1.648000000    -3.164000000    -2.564000000
H    -1.019000000    -4.019000000    -2.331000000
C    -1.285000000    -2.469000000    -3.715000000
O    -0.151000000    -2.846000000    -4.303000000
C     1.036000000    -1.966000000    -3.952000000
C     2.309000000    -2.782000000    -3.640000000
C     3.495000000    -2.153000000    -3.401000000
H     3.566000000    -1.078000000    -3.549000000
C     2.165000000    -4.143000000    -3.289000000
H     1.249000000    -4.711000000    -3.429000000
O     1.260000000    -1.004000000    -4.984000000
H     0.792000000    -1.452000000    -3.011000000
C    -2.110000000    -1.558000000    -4.295000000
C    -1.533000000    -0.748000000    -5.506000000
H    -2.334000000    -0.402000000    -6.161000000
H    -0.930000000    -1.373000000    -6.168000000
C    -0.708000000     0.372000000    -4.984000000
C    -1.325000000     1.568000000    -4.560000000
H    -2.411000000     1.622000000    -4.583000000
C     0.654000000     0.247000000    -4.797000000
C     1.456000000     1.257000000    -4.311000000
H     2.542000000     1.304000000    -4.275000000
C     0.886000000     2.514000000    -3.923000000
O     1.659000000     3.418000000    -3.243000000
C     1.451000000     3.505000000    -1.844000000
C     2.711000000     3.614000000    -1.075000000
C     3.665000000     2.632000000    -1.269000000
H     3.378000000     1.808000000    -1.917000000
C     2.838000000     4.529000000    -0.030000000
H     2.093000000     5.306000000     0.117000000
O     0.498000000     4.606000000    -1.624000000
H     1.085000000     2.481000000    -1.683000000
C    -0.543000000     2.653000000    -4.093000000
C    -1.313000000     3.918000000    -3.697000000
H    -2.249000000     4.035000000    -4.247000000
H    -0.734000000     4.789000000    -4.012000000
C    -1.699000000     3.887000000    -2.203000000
C    -0.741000000     4.295000000    -1.272000000
C    -1.046000000     4.379000000     0.079000000
H    -0.321000000     4.657000000     0.840000000
C    -2.354000000     3.938000000     0.463000000
O    -2.556000000     3.856000000     1.834000000
C    -2.330000000     2.547000000     2.404000000
H    -1.547000000     2.016000000     1.843000000
C    -1.732000000     2.614000000     3.802000000
C    -2.022000000     1.641000000     4.753000000
H    -2.754000000     0.873000000     4.512000000
C    -0.640000000     3.518000000     4.012000000
H    -0.313000000     4.204000000     3.235000000
C     0.012000000     3.466000000     5.242000000
O     1.062000000     4.316000000     5.445000000
C    -0.332000000     2.510000000     6.191000000
H     0.175000000     2.528000000     7.152000000
C    -1.337000000     1.604000000     5.952000000
O    -1.643000000     0.655000000     6.824000000
C    -2.196000000    -0.548000000     6.558000000
C    -1.543000000    -1.484000000     5.755000000
H    -0.585000000    -1.322000000     5.268000000
C    -3.409000000    -0.892000000     7.166000000
H    -3.914000000    -0.117000000     7.736000000
C    -3.883000000    -2.172000000     7.071000000
H    -4.831000000    -2.310000000     7.584000000
C    -3.166000000    -3.167000000     6.381000000
H    -3.508000000    -4.199000000     6.366000000
C    -2.062000000    -2.812000000     5.716000000
O    -1.385000000    -3.903000000     5.102000000
C    -1.407000000    -4.048000000     3.755000000
C    -0.511000000    -4.991000000     3.255000000
H     0.206000000    -5.330000000     3.998000000
C    -0.355000000    -5.210000000     1.930000000
O     0.674000000    -6.142000000     1.616000000
C     0.801000000    -6.595000000     0.308000000
C     1.868000000    -6.124000000    -0.513000000
H     2.498000000    -5.316000000    -0.150000000
C     0.020000000    -7.612000000    -0.133000000
H    -0.752000000    -8.069000000     0.481000000
C     0.393000000    -8.295000000    -1.304000000
H    -0.162000000    -9.208000000    -1.505000000
C     1.322000000    -7.743000000    -2.182000000
H     1.512000000    -8.208000000    -3.146000000
C     2.132000000    -6.665000000    -1.757000000
O     3.203000000    -6.211000000    -2.569000000
C     3.289000000    -4.887000000    -2.899000000
C     4.553000000    -4.286000000    -2.903000000
H     5.400000000    -4.890000000    -2.588000000
C     4.648000000    -2.913000000    -3.147000000
O     5.900000000    -2.335000000    -3.020000000
C     6.189000000    -0.964000000    -2.866000000
C     5.901000000    -0.263000000    -1.742000000
H     5.276000000    -0.686000000    -0.960000000
C     6.769000000    -0.252000000    -3.945000000
H     7.118000000    -0.808000000    -4.811000000
C     7.050000000     1.130000000    -3.786000000
H     7.582000000     1.735000000    -4.516000000
C     6.789000000     1.747000000    -2.576000000
H     7.117000000     2.765000000    -2.382000000
C     6.158000000     1.082000000    -1.516000000
O     5.724000000     1.682000000    -0.376000000
C     4.831000000     2.679000000    -0.466000000
C     4.912000000     3.602000000     0.559000000
H     5.756000000     3.571000000     1.243000000
C     3.924000000     4.516000000     0.820000000
O     4.018000000     5.484000000     1.789000000
C     3.034000000     5.722000000     2.743000000
C     2.663000000     7.084000000     2.790000000
H     2.997000000     7.877000000     2.126000000
C     1.689000000     7.456000000     3.750000000
H     1.351000000     8.489000000     3.783000000
C     1.170000000     6.531000000     4.653000000
H     0.339000000     6.722000000     5.327000000
C     1.572000000     5.203000000     4.576000000
C     2.523000000     4.790000000     3.606000000
H     2.798000000     3.746000000     3.474000000
O     6.686000000    -1.204000000     1.397000000
H     5.985000000    -1.837000000     1.239000000
H     7.481000000    -1.648000000     1.100000000
O     5.502000000    -5.039000000     0.361000000
H     6.195000000    -5.029000000     1.021000000
H     5.002000000    -4.239000000     0.527000000
O     4.520000000     0.971000000     2.099000000
H     5.248000000     0.980000000     1.477000000
H     4.489000000     0.069000000     2.419000000
O     1.563000000     0.762000000     4.440000000
H     1.367000000     1.354000000     3.713000000
H     0.750000000     0.724000000     4.944000000
O     4.860000000    -6.240000000     5.721000000
H     4.263000000    -5.829000000     5.095000000
H     5.427000000    -6.793000000     5.184000000
O     5.417000000     2.861000000     4.000000000
H     4.732000000     2.858000000     4.668000000
H     5.106000000     2.248000000     3.335000000
O     7.973000000    -0.507000000     3.626000000
H     7.493000000    -0.672000000     2.815000000
H     7.595000000    -1.120000000     4.257000000
O     7.195000000    -5.534000000     2.333000000
H     7.544000000    -4.751000000     2.760000000
H     7.948000000    -6.119000000     2.253000000
O     3.639000000     1.847000000     5.751000000
H     4.286000000     1.144000000     5.686000000
H     2.810000000     1.432000000     5.512000000
O     6.025000000    -7.647000000     3.498000000
H     6.381000000    -6.958000000     2.937000000
H     5.238000000    -7.945000000     3.042000000
O     2.745000000    -5.262000000     4.125000000
H     2.963000000    -4.630000000     3.440000000
H     2.284000000    -4.747000000     4.787000000
O     5.440000000    -0.182000000     5.270000000
H     5.159000000    -1.054000000     4.995000000
H     5.921000000    -0.331000000     6.085000000
O     1.577000000     1.821000000     2.004000000
H     1.386000000     1.715000000     1.073000000
H     2.498000000     1.572000000     2.090000000
O     1.830000000    -1.974000000     5.117000000
H     2.398000000    -2.378000000     4.461000000
H     1.850000000    -1.040000000     4.909000000
O     4.173000000    -3.723000000     7.388000000
H     4.858000000    -3.754000000     6.720000000
H     3.374000000    -3.971000000     6.924000000
O     5.221000000    -3.269000000     4.799000000
H     4.683000000    -3.392000000     4.016000000
H     6.109000000    -3.486000000     4.516000000
O     3.000000000    -7.777000000     3.212000000
H     2.705000000    -6.892000000     3.424000000
H     3.040000000    -8.226000000     4.056000000
O     1.524000000    -4.025000000     6.661000000
H     1.143000000    -3.351000000     6.098000000
H     0.772000000    -4.519000000     6.986000000
O     5.061000000    -7.734000000    -0.574000000
H     5.912000000    -7.833000000    -0.148000000
H     4.811000000    -6.826000000    -0.402000000
