201
-1241.15924
C    -4.433000000     1.316000000    -1.046000000
H    -3.745000000     1.694000000    -1.798000000
C    -4.310000000     1.743000000     0.263000000
C    -5.156000000     1.142000000     1.212000000
H    -5.123000000     1.565000000     2.213000000
C    -3.206000000     2.747000000     0.627000000
O    -3.056000000     3.892000000    -0.207000000
H    -2.242000000     2.225000000     0.543000000
O    -3.355000000     3.232000000     1.943000000
C    -2.303000000     3.028000000     2.802000000
C    -2.163000000     1.864000000     3.544000000
H    -2.905000000     1.075000000     3.626000000
C    -1.025000000     1.648000000     4.271000000
O    -0.949000000     0.428000000     4.864000000
C    -0.050000000     2.585000000     4.342000000
C     1.279000000     2.181000000     4.959000000
H     1.826000000     3.108000000     5.144000000
C     2.250000000     1.373000000     4.151000000
C     3.246000000     2.030000000     3.283000000
H     3.256000000     3.116000000     3.308000000
H     1.069000000     1.736000000     5.935000000
C    -0.197000000     3.785000000     3.568000000
H     0.666000000     4.419000000     3.381000000
C    -1.306000000     4.016000000     2.811000000
C    -1.212000000     5.125000000     1.776000000
H    -0.552000000     5.912000000     2.146000000
H    -2.235000000     5.503000000     1.711000000
C    -0.816000000     4.629000000     0.357000000
C     0.490000000     4.747000000    -0.061000000
H     1.264000000     5.155000000     0.584000000
C    -1.768000000     4.172000000    -0.576000000
C    -1.426000000     3.903000000    -1.892000000
H    -2.133000000     3.471000000    -2.596000000
C    -0.111000000     4.054000000    -2.299000000
O     0.347000000     3.602000000    -3.498000000
C     1.024000000     2.332000000    -3.513000000
C     0.636000000     1.474000000    -4.649000000
C     1.595000000     0.706000000    -5.263000000
H     2.650000000     0.747000000    -5.002000000
C    -0.715000000     1.279000000    -4.969000000
H    -1.450000000     1.782000000    -4.347000000
O     2.434000000     2.631000000    -3.636000000
H     0.865000000     1.701000000    -2.626000000
C     0.811000000     4.486000000    -1.394000000
C     2.264000000     4.752000000    -1.761000000
H     2.623000000     5.614000000    -1.194000000
H     2.264000000     5.032000000    -2.816000000
C     3.147000000     3.488000000    -1.479000000
C     3.661000000     3.205000000    -0.230000000
H     3.681000000     3.910000000     0.597000000
C     3.173000000     2.527000000    -2.505000000
C     3.951000000     1.396000000    -2.255000000
H     3.767000000     0.573000000    -2.941000000
C     4.544000000     1.170000000    -0.996000000
O     4.912000000    -0.092000000    -0.704000000
C     4.039000000    -0.901000000     0.138000000
C     3.902000000    -2.305000000    -0.501000000
C     3.920000000    -2.492000000    -1.865000000
H     4.042000000    -1.630000000    -2.516000000
C     3.831000000    -3.518000000     0.324000000
H     3.705000000    -3.477000000     1.403000000
O     4.600000000    -0.873000000     1.490000000
H     3.049000000    -0.440000000     0.272000000
C     4.365000000     2.078000000     0.065000000
C     4.958000000     1.896000000     1.447000000
H     5.385000000     2.826000000     1.829000000
H     5.828000000     1.240000000     1.363000000
C     4.020000000     1.250000000     2.454000000
C     3.932000000    -0.114000000     2.490000000
C     2.959000000    -0.782000000     3.230000000
H     2.780000000    -1.851000000     3.146000000
C     2.108000000     0.004000000     4.106000000
O     1.116000000    -0.645000000     4.727000000
C    -0.216000000    -0.522000000     4.089000000
H    -0.143000000    -0.177000000     3.047000000
C    -0.880000000    -1.890000000     4.061000000
C    -2.228000000    -2.052000000     4.400000000
H    -2.789000000    -1.175000000     4.714000000
C    -0.228000000    -3.008000000     3.442000000
H     0.787000000    -2.922000000     3.062000000
C    -0.955000000    -4.226000000     3.424000000
O    -0.387000000    -5.345000000     2.807000000
C    -2.311000000    -4.316000000     3.830000000
H    -2.735000000    -5.312000000     3.736000000
C    -2.953000000    -3.189000000     4.271000000
O    -4.281000000    -3.334000000     4.613000000
C    -5.241000000    -2.397000000     4.434000000
C    -5.496000000    -1.790000000     3.236000000
H    -4.871000000    -1.990000000     2.370000000
C    -5.963000000    -1.952000000     5.553000000
H    -5.618000000    -2.313000000     6.519000000
C    -6.931000000    -0.997000000     5.476000000
H    -7.454000000    -0.579000000     6.332000000
C    -7.259000000    -0.442000000     4.203000000
H    -8.174000000     0.144000000     4.174000000
C    -6.531000000    -0.914000000     3.091000000
O    -6.960000000    -0.288000000     1.903000000
C    -6.122000000     0.173000000     0.890000000
C    -6.229000000    -0.218000000    -0.466000000
H    -6.999000000    -0.888000000    -0.840000000
C    -5.345000000     0.347000000    -1.411000000
O    -5.487000000    -0.151000000    -2.701000000
C    -4.986000000     0.543000000    -3.807000000
C    -3.976000000     0.052000000    -4.632000000
H    -3.554000000    -0.931000000    -4.437000000
C    -5.511000000     1.811000000    -4.096000000
H    -6.215000000     2.296000000    -3.425000000
C    -4.994000000     2.541000000    -5.182000000
H    -5.359000000     3.546000000    -5.381000000
C    -3.902000000     2.053000000    -5.913000000
H    -3.384000000     2.577000000    -6.712000000
C    -3.428000000     0.797000000    -5.650000000
O    -2.391000000     0.256000000    -6.445000000
C    -1.078000000     0.387000000    -5.996000000
C    -0.063000000    -0.352000000    -6.584000000
H    -0.298000000    -1.063000000    -7.372000000
C     1.250000000    -0.150000000    -6.214000000
O     2.148000000    -0.811000000    -6.987000000
C     3.199000000    -1.458000000    -6.351000000
C     3.023000000    -2.387000000    -5.322000000
H     2.027000000    -2.755000000    -5.088000000
C     4.477000000    -0.925000000    -6.626000000
H     4.544000000    -0.187000000    -7.422000000
C     5.578000000    -1.405000000    -5.880000000
H     6.552000000    -0.939000000    -6.010000000
C     5.323000000    -2.316000000    -4.869000000
H     6.158000000    -2.767000000    -4.338000000
C     4.118000000    -2.883000000    -4.688000000
O     3.961000000    -3.881000000    -3.811000000
C     3.847000000    -3.735000000    -2.465000000
C     3.681000000    -4.897000000    -1.608000000
H     3.546000000    -5.899000000    -2.006000000
C     3.747000000    -4.770000000    -0.231000000
O     3.702000000    -5.928000000     0.559000000
C     2.935000000    -6.086000000     1.703000000
C     3.642000000    -6.292000000     2.907000000
H     4.719000000    -6.422000000     2.964000000
C     2.926000000    -6.230000000     4.120000000
H     3.440000000    -6.303000000     5.075000000
C     1.538000000    -5.918000000     4.155000000
H     1.095000000    -5.910000000     5.147000000
C     0.915000000    -5.729000000     2.898000000
C     1.620000000    -5.664000000     1.699000000
H     1.166000000    -5.341000000     0.766000000
O    -1.485000000    -7.073000000    -5.129000000
H    -1.120000000    -7.107000000    -6.014000000
H    -0.726000000    -6.938000000    -4.562000000
O    -3.751000000    -6.040000000    -6.508000000
H    -3.073000000    -6.216000000    -5.855000000
H    -4.575000000    -6.159000000    -6.036000000
O    -1.139000000    -8.183000000     2.546000000
H    -0.802000000    -7.296000000     2.668000000
H    -2.026000000    -8.155000000     2.905000000
O     2.103000000    -7.938000000    -2.277000000
H     2.830000000    -8.029000000    -1.661000000
H     2.183000000    -8.697000000    -2.855000000
O    -3.384000000    -8.049000000     0.050000000
H    -2.449000000    -7.920000000     0.208000000
H    -3.726000000    -7.168000000    -0.098000000
O    -5.006000000    -5.825000000    -0.091000000
H    -5.001000000    -5.558000000    -1.011000000
H    -5.702000000    -5.302000000     0.306000000
O     0.460000000    -5.617000000    -6.473000000
H     1.394000000    -5.666000000    -6.268000000
H     0.078000000    -5.141000000    -5.735000000
O    -6.647000000    -5.951000000    -4.195000000
H    -7.583000000    -6.056000000    -4.026000000
H    -6.581000000    -5.124000000    -4.674000000
O    -1.320000000    -3.744000000    -7.435000000
H    -1.083000000    -3.814000000    -6.510000000
H    -1.580000000    -4.631000000    -7.683000000
O    -0.739000000    -4.134000000    -4.724000000
H    -1.620000000    -4.012000000    -4.370000000
H    -0.218000000    -4.427000000    -3.976000000
O     2.980000000    -5.652000000    -6.123000000
H     2.958000000    -5.603000000    -5.168000000
H     3.362000000    -6.509000000    -6.311000000
O    -6.398000000    -3.492000000     0.245000000
H    -6.031000000    -3.651000000    -0.624000000
H    -6.208000000    -2.570000000     0.420000000
O    -6.336000000    -8.520000000    -3.122000000
H    -5.449000000    -8.844000000    -3.282000000
H    -6.241000000    -7.568000000    -3.090000000
O    -0.705000000    -7.579000000    -0.669000000
H     0.186000000    -7.598000000    -1.019000000
H    -1.006000000    -6.684000000    -0.829000000
O     0.232000000   -10.370000000     0.372000000
H    -0.009000000    -9.494000000     0.070000000
H    -0.470000000   -10.618000000     0.972000000
O     0.389000000    -6.093000000    -3.321000000
H     0.079000000    -5.802000000    -2.463000000
H     1.106000000    -6.696000000    -3.124000000
O    -3.751000000    -9.210000000    -2.904000000
H    -3.070000000    -9.788000000    -2.561000000
H    -3.442000000    -8.327000000    -2.701000000
O    -5.204000000    -4.161000000    -2.108000000
H    -4.250000000    -4.163000000    -2.184000000
H    -5.508000000    -4.621000000    -2.890000000
O    -3.108000000    -6.559000000    -2.769000000
H    -2.753000000    -5.798000000    -2.309000000
H    -2.655000000    -6.562000000    -3.612000000
