201
-1244.39384
C    -2.166000000    -4.800000000     0.537000000
H    -2.032000000    -5.056000000    -0.511000000
C    -3.006000000    -3.696000000     0.979000000
C    -3.241000000    -3.429000000     2.326000000
H    -3.864000000    -2.565000000     2.542000000
C    -3.387000000    -2.591000000    -0.078000000
O    -3.522000000    -3.165000000    -1.416000000
H    -2.653000000    -1.772000000    -0.118000000
O    -4.611000000    -1.978000000     0.237000000
C    -4.706000000    -0.599000000     0.205000000
C    -4.494000000     0.106000000     1.424000000
H    -4.394000000    -0.413000000     2.374000000
C    -4.363000000     1.495000000     1.395000000
O    -3.826000000     2.038000000     2.541000000
C    -4.471000000     2.202000000     0.180000000
C    -4.285000000     3.752000000     0.095000000
H    -4.953000000     4.311000000    -0.564000000
C    -2.854000000     3.995000000    -0.163000000
C    -2.336000000     4.019000000    -1.423000000
H    -2.975000000     3.908000000    -2.295000000
H    -4.617000000     4.194000000     1.037000000
C    -4.696000000     1.513000000    -1.062000000
H    -4.860000000     2.036000000    -2.001000000
C    -4.797000000     0.119000000    -0.992000000
C    -4.983000000    -0.631000000    -2.265000000
H    -5.428000000     0.107000000    -2.935000000
H    -5.717000000    -1.439000000    -2.245000000
C    -3.650000000    -1.225000000    -2.873000000
C    -3.045000000    -0.497000000    -3.894000000
H    -3.577000000     0.376000000    -4.263000000
C    -3.065000000    -2.365000000    -2.467000000
C    -1.819000000    -2.788000000    -2.938000000
H    -1.277000000    -3.623000000    -2.503000000
C    -1.204000000    -2.087000000    -3.984000000
O     0.077000000    -2.459000000    -4.258000000
C     1.209000000    -1.580000000    -3.738000000
C     2.384000000    -2.568000000    -3.384000000
C     3.696000000    -2.117000000    -3.580000000
H     3.868000000    -1.180000000    -4.105000000
C     2.155000000    -3.772000000    -2.726000000
H     1.119000000    -4.085000000    -2.622000000
O     1.570000000    -0.552000000    -4.700000000
H     0.970000000    -1.097000000    -2.779000000
C    -1.781000000    -0.913000000    -4.392000000
C    -1.075000000     0.006000000    -5.355000000
H    -1.763000000     0.558000000    -5.999000000
H    -0.534000000    -0.594000000    -6.090000000
C    -0.272000000     1.045000000    -4.664000000
C    -0.805000000     2.252000000    -4.256000000
H    -1.868000000     2.446000000    -4.370000000
C     1.062000000     0.720000000    -4.442000000
C     1.863000000     1.676000000    -3.921000000
H     2.914000000     1.498000000    -3.708000000
C     1.405000000     2.956000000    -3.559000000
O     2.248000000     3.675000000    -2.678000000
C     1.992000000     3.424000000    -1.273000000
C     3.246000000     3.150000000    -0.468000000
C     4.266000000     2.364000000    -0.989000000
H     4.135000000     1.831000000    -1.928000000
C     3.420000000     3.781000000     0.788000000
H     2.649000000     4.473000000     1.119000000
O     1.231000000     4.556000000    -0.792000000
H     1.378000000     2.520000000    -1.156000000
C     0.035000000     3.212000000    -3.676000000
C    -0.635000000     4.519000000    -3.229000000
H    -1.543000000     4.665000000    -3.816000000
H    -0.066000000     5.434000000    -3.409000000
C    -1.012000000     4.337000000    -1.724000000
C    -0.130000000     4.516000000    -0.647000000
C    -0.589000000     4.492000000     0.647000000
H     0.069000000     4.421000000     1.509000000
C    -1.929000000     4.136000000     0.885000000
O    -2.341000000     3.791000000     2.154000000
C    -2.469000000     2.421000000     2.505000000
H    -1.904000000     1.832000000     1.767000000
C    -1.779000000     2.091000000     3.825000000
C    -2.458000000     1.338000000     4.915000000
H    -3.504000000     1.056000000     4.832000000
C    -0.457000000     2.475000000     4.100000000
H    -0.031000000     3.070000000     3.296000000
C     0.100000000     2.241000000     5.373000000
O     1.352000000     2.712000000     5.731000000
C    -0.537000000     1.527000000     6.378000000
H    -0.072000000     1.275000000     7.328000000
C    -1.803000000     0.971000000     6.100000000
O    -2.216000000     0.072000000     6.991000000
C    -2.894000000    -0.998000000     6.517000000
C    -2.477000000    -1.905000000     5.558000000
H    -1.487000000    -1.840000000     5.114000000
C    -4.129000000    -1.127000000     7.134000000
H    -4.564000000    -0.430000000     7.845000000
C    -4.946000000    -2.120000000     6.677000000
H    -5.943000000    -2.115000000     7.109000000
C    -4.598000000    -3.129000000     5.819000000
H    -5.164000000    -4.039000000     5.632000000
C    -3.304000000    -3.007000000     5.198000000
O    -2.688000000    -4.085000000     4.578000000
C    -2.618000000    -4.268000000     3.214000000
C    -1.846000000    -5.354000000     2.743000000
H    -1.329000000    -5.960000000     3.483000000
C    -1.572000000    -5.612000000     1.445000000
O    -0.753000000    -6.705000000     1.129000000
C    -0.111000000    -6.823000000    -0.133000000
C     1.055000000    -6.118000000    -0.346000000
H     1.465000000    -5.390000000     0.349000000
C    -0.598000000    -7.600000000    -1.163000000
H    -1.547000000    -8.063000000    -0.908000000
C     0.045000000    -7.804000000    -2.358000000
H    -0.396000000    -8.389000000    -3.162000000
C     1.323000000    -7.265000000    -2.464000000
H     1.801000000    -7.260000000    -3.441000000
C     1.798000000    -6.325000000    -1.531000000
O     3.039000000    -5.762000000    -1.751000000
C     3.176000000    -4.547000000    -2.303000000
C     4.466000000    -4.095000000    -2.505000000
H     5.320000000    -4.703000000    -2.219000000
C     4.725000000    -2.921000000    -3.101000000
O     6.014000000    -2.506000000    -3.237000000
C     6.369000000    -1.155000000    -3.220000000
C     6.246000000    -0.393000000    -2.047000000
H     5.709000000    -0.854000000    -1.222000000
C     6.982000000    -0.530000000    -4.303000000
H     7.243000000    -1.179000000    -5.135000000
C     7.394000000     0.783000000    -4.286000000
H     7.915000000     1.295000000    -5.091000000
C     7.262000000     1.545000000    -3.123000000
H     7.637000000     2.561000000    -3.023000000
C     6.674000000     0.938000000    -2.022000000
O     6.584000000     1.630000000    -0.877000000
C     5.565000000     2.380000000    -0.391000000
C     5.633000000     2.949000000     0.876000000
H     6.563000000     2.879000000     1.436000000
C     4.587000000     3.613000000     1.483000000
O     4.714000000     4.124000000     2.726000000
C     3.655000000     4.457000000     3.533000000
C     3.068000000     5.724000000     3.441000000
H     3.560000000     6.571000000     2.971000000
C     1.847000000     5.997000000     4.126000000
H     1.422000000     6.985000000     3.971000000
C     1.257000000     5.002000000     4.973000000
H     0.361000000     5.169000000     5.566000000
C     1.923000000     3.750000000     5.093000000
C     3.095000000     3.471000000     4.390000000
H     3.465000000     2.454000000     4.491000000
O     6.494000000    -6.936000000     0.554000000
H     7.178000000    -7.259000000     1.139000000
H     5.675000000    -7.187000000     0.980000000
O     3.130000000    -1.303000000     4.628000000
H     3.830000000    -0.700000000     4.378000000
H     2.527000000    -1.291000000     3.885000000
O     6.336000000    -5.627000000     3.108000000
H     5.803000000    -4.904000000     2.777000000
H     5.792000000    -6.404000000     2.976000000
O     7.501000000    -2.104000000     1.076000000
H     7.385000000    -1.906000000     2.005000000
H     6.892000000    -2.823000000     0.906000000
O     5.730000000    -4.086000000     0.480000000
H     6.022000000    -4.995000000     0.415000000
H     4.987000000    -4.116000000     1.082000000
O     7.649000000    -1.983000000     3.838000000
H     7.489000000    -2.528000000     4.608000000
H     7.962000000    -1.151000000     4.194000000
O     0.981000000    -1.588000000     6.865000000
H     1.527000000    -1.437000000     6.094000000
H     0.715000000    -2.505000000     6.795000000
O     3.549000000    -3.098000000     8.245000000
H     3.434000000    -3.936000000     7.798000000
H     2.936000000    -3.133000000     8.980000000
O     8.906000000    -5.147000000     3.914000000
H     9.183000000    -6.042000000     4.108000000
H     8.004000000    -5.237000000     3.605000000
O     4.046000000    -7.052000000     2.503000000
H     3.703000000    -7.646000000     3.171000000
H     3.522000000    -6.257000000     2.597000000
O     2.072000000    -9.200000000     1.244000000
H     2.223000000    -8.258000000     1.170000000
H     1.257000000    -9.273000000     1.741000000
O     5.132000000     0.240000000     3.870000000
H     5.587000000    -0.439000000     3.372000000
H     5.733000000     0.985000000     3.863000000
O     4.183000000    -3.926000000     5.019000000
H     4.367000000    -3.962000000     4.080000000
H     3.747000000    -3.084000000     5.146000000
O     0.883000000    -5.988000000     4.868000000
H     0.639000000    -6.700000000     4.277000000
H     1.629000000    -5.567000000     4.441000000
O     6.921000000    -3.573000000     5.917000000
H     7.249000000    -4.260000000     6.498000000
H     6.039000000    -3.860000000     5.681000000
O     2.758000000    -5.604000000     6.961000000
H     1.896000000    -5.691000000     6.553000000
H     3.202000000    -4.934000000     6.441000000
O    -0.666000000    -4.344000000     6.772000000
H    -1.489000000    -4.211000000     6.302000000
H    -0.131000000    -4.867000000     6.175000000
O     4.302000000    -8.255000000     5.975000000
H     4.089000000    -8.846000000     6.697000000
H     3.560000000    -8.334000000     5.375000000
O     0.054000000    -8.291000000     3.260000000
H    -0.778000000    -8.477000000     3.696000000
H    -0.196000000    -7.907000000     2.420000000
