201
-1203.27447
C    -1.770000000    -4.852000000     0.849000000
H    -1.470000000    -4.907000000    -0.194000000
C    -2.631000000    -3.813000000     1.201000000
C    -2.819000000    -3.585000000     2.579000000
H    -3.352000000    -2.685000000     2.875000000
C    -3.181000000    -2.809000000     0.148000000
O    -3.495000000    -3.453000000    -1.193000000
H    -2.402000000    -2.047000000     0.002000000
O    -4.303000000    -2.086000000     0.732000000
C    -4.467000000    -0.733000000     0.476000000
C    -4.350000000     0.086000000     1.549000000
H    -4.042000000    -0.340000000     2.501000000
C    -4.337000000     1.504000000     1.439000000
O    -3.851000000     2.245000000     2.457000000
C    -4.435000000     2.027000000     0.128000000
C    -4.366000000     3.507000000    -0.121000000
H    -5.045000000     3.898000000    -0.882000000
C    -2.961000000     3.909000000    -0.445000000
C    -2.636000000     3.951000000    -1.783000000
H    -3.251000000     3.626000000    -2.619000000
H    -4.587000000     4.098000000     0.770000000
C    -4.645000000     1.231000000    -1.039000000
H    -4.708000000     1.633000000    -2.047000000
C    -4.647000000    -0.188000000    -0.864000000
C    -5.008000000    -1.135000000    -2.002000000
H    -5.661000000    -0.529000000    -2.634000000
H    -5.510000000    -2.053000000    -1.690000000
C    -3.742000000    -1.605000000    -2.707000000
C    -3.147000000    -0.789000000    -3.666000000
H    -3.582000000     0.164000000    -3.958000000
C    -3.107000000    -2.775000000    -2.340000000
C    -1.935000000    -3.176000000    -2.925000000
H    -1.494000000    -4.140000000    -2.688000000
C    -1.281000000    -2.389000000    -3.937000000
O     0.047000000    -2.681000000    -4.285000000
C     1.035000000    -1.802000000    -3.734000000
C     2.185000000    -2.588000000    -3.271000000
C     3.500000000    -2.131000000    -3.536000000
H     3.834000000    -1.227000000    -4.039000000
C     2.124000000    -3.643000000    -2.387000000
H     1.122000000    -3.882000000    -2.041000000
O     1.405000000    -0.803000000    -4.736000000
H     0.546000000    -1.309000000    -2.881000000
C    -1.922000000    -1.141000000    -4.278000000
C    -1.332000000    -0.350000000    -5.398000000
H    -2.193000000     0.117000000    -5.882000000
H    -0.874000000    -1.034000000    -6.115000000
C    -0.411000000     0.737000000    -4.859000000
C    -0.953000000     2.027000000    -4.656000000
H    -1.978000000     2.348000000    -4.827000000
C     0.942000000     0.441000000    -4.531000000
C     1.722000000     1.344000000    -3.986000000
H     2.770000000     1.132000000    -3.789000000
C     1.250000000     2.684000000    -3.695000000
O     2.093000000     3.527000000    -3.001000000
C     1.834000000     3.698000000    -1.578000000
C     3.168000000     3.750000000    -0.747000000
C     4.223000000     2.872000000    -1.130000000
H     4.159000000     2.245000000    -2.016000000
C     3.311000000     4.546000000     0.412000000
H     2.607000000     5.342000000     0.642000000
O     0.936000000     4.826000000    -1.444000000
H     1.379000000     2.758000000    -1.232000000
C    -0.105000000     2.971000000    -3.975000000
C    -0.771000000     4.318000000    -3.509000000
H    -1.595000000     4.393000000    -4.222000000
H    -0.140000000     5.169000000    -3.774000000
C    -1.300000000     4.271000000    -2.074000000
C    -0.393000000     4.600000000    -1.056000000
C    -0.742000000     4.400000000     0.254000000
H     0.024000000     4.533000000     1.013000000
C    -2.086000000     4.130000000     0.588000000
O    -2.239000000     3.892000000     1.902000000
C    -2.426000000     2.516000000     2.363000000
H    -1.942000000     1.934000000     1.565000000
C    -1.682000000     2.228000000     3.618000000
C    -2.180000000     1.291000000     4.544000000
H    -3.203000000     0.930000000     4.477000000
C    -0.418000000     2.802000000     3.818000000
H    -0.124000000     3.592000000     3.132000000
C     0.386000000     2.377000000     4.963000000
O     1.658000000     2.898000000     5.257000000
C    -0.071000000     1.412000000     5.805000000
H     0.506000000     1.081000000     6.665000000
C    -1.340000000     0.946000000     5.651000000
O    -1.848000000     0.031000000     6.624000000
C    -2.751000000    -0.993000000     6.355000000
C    -2.316000000    -2.261000000     5.822000000
H    -1.247000000    -2.409000000     5.696000000
C    -4.141000000    -0.817000000     6.552000000
H    -4.449000000     0.191000000     6.816000000
C    -5.136000000    -1.773000000     6.152000000
H    -6.206000000    -1.585000000     6.192000000
C    -4.599000000    -2.981000000     5.654000000
H    -5.326000000    -3.669000000     5.228000000
C    -3.263000000    -3.143000000     5.422000000
O    -2.793000000    -4.347000000     4.845000000
C    -2.392000000    -4.437000000     3.519000000
C    -1.592000000    -5.517000000     3.144000000
H    -1.154000000    -6.195000000     3.872000000
C    -1.355000000    -5.762000000     1.830000000
O    -0.481000000    -6.792000000     1.548000000
C     0.183000000    -7.033000000     0.378000000
C     1.352000000    -6.287000000     0.066000000
H     1.821000000    -5.677000000     0.834000000
C    -0.444000000    -7.791000000    -0.609000000
H    -1.361000000    -8.321000000    -0.364000000
C     0.050000000    -7.728000000    -1.942000000
H    -0.461000000    -8.346000000    -2.675000000
C     1.193000000    -6.996000000    -2.232000000
H     1.506000000    -6.966000000    -3.273000000
C     1.926000000    -6.311000000    -1.264000000
O     3.086000000    -5.661000000    -1.481000000
C     3.243000000    -4.456000000    -2.071000000
C     4.470000000    -4.090000000    -2.438000000
H     5.356000000    -4.660000000    -2.171000000
C     4.640000000    -2.886000000    -3.095000000
O     5.919000000    -2.445000000    -3.135000000
C     6.257000000    -1.143000000    -3.001000000
C     5.913000000    -0.442000000    -1.780000000
H     5.323000000    -1.057000000    -1.105000000
C     7.079000000    -0.482000000    -3.899000000
H     7.426000000    -0.929000000    -4.827000000
C     7.597000000     0.776000000    -3.582000000
H     8.119000000     1.306000000    -4.375000000
C     7.264000000     1.460000000    -2.389000000
H     7.625000000     2.445000000    -2.104000000
C     6.350000000     0.848000000    -1.475000000
O     6.025000000     1.483000000    -0.300000000
C     5.211000000     2.628000000    -0.222000000
C     5.384000000     3.479000000     0.876000000
H     6.165000000     3.282000000     1.605000000
C     4.490000000     4.467000000     1.232000000
O     4.591000000     5.237000000     2.349000000
C     3.643000000     5.275000000     3.349000000
C     2.913000000     6.424000000     3.469000000
H     3.258000000     7.351000000     3.019000000
C     1.748000000     6.373000000     4.280000000
H     1.146000000     7.268000000     4.414000000
C     1.285000000     5.177000000     4.790000000
H     0.278000000     5.133000000     5.196000000
C     2.120000000     4.082000000     4.752000000
C     3.278000000     4.154000000     4.040000000
H     3.896000000     3.266000000     3.930000000
O     6.799000000    -8.845000000     5.119000000
H     6.690000000    -9.104000000     4.204000000
H     6.038000000    -8.295000000     5.304000000
O     4.340000000    -7.245000000     4.949000000
H     3.780000000    -6.717000000     4.379000000
H     4.198000000    -6.884000000     5.824000000
O     3.067000000    -9.658000000     6.932000000
H     3.254000000    -9.076000000     6.196000000
H     3.185000000   -10.539000000     6.577000000
O     6.905000000    -8.265000000    -0.028000000
H     7.721000000    -7.918000000     0.331000000
H     6.238000000    -8.021000000     0.614000000
O     2.635000000    -0.980000000     4.896000000
H     3.199000000    -0.262000000     5.184000000
H     2.547000000    -0.851000000     3.951000000
O     7.119000000    -4.952000000     4.908000000
H     6.462000000    -4.827000000     4.223000000
H     7.223000000    -5.902000000     4.970000000
O     7.632000000    -1.828000000     1.039000000
H     7.791000000    -1.759000000     1.981000000
H     7.397000000    -2.746000000     0.903000000
O     6.987000000    -4.426000000     0.964000000
H     7.067000000    -5.321000000     0.636000000
H     6.220000000    -4.449000000     1.537000000
O     7.228000000    -2.146000000     4.208000000
H     7.156000000    -3.019000000     4.595000000
H     8.170000000    -1.995000000     4.134000000
O     1.138000000    -1.596000000     7.278000000
H     1.586000000    -1.377000000     6.461000000
H     0.751000000    -2.457000000     7.115000000
O     9.560000000    -4.191000000     2.553000000
H    10.035000000    -4.957000000     2.875000000
H     8.824000000    -4.555000000     2.061000000
O     5.508000000    -7.657000000     2.396000000
H     4.619000000    -7.918000000     2.636000000
H     5.562000000    -6.734000000     2.646000000
O     5.886000000     0.456000000     4.416000000
H     6.060000000    -0.345000000     3.921000000
H     6.694000000     0.964000000     4.341000000
O     3.823000000    -3.871000000     5.983000000
H     3.532000000    -4.356000000     5.212000000
H     3.302000000    -3.068000000     5.973000000
O     1.096000000    -5.254000000     5.265000000
H     0.713000000    -6.120000000     5.126000000
H     1.804000000    -5.199000000     4.623000000
O     6.003000000    -2.614000000     7.215000000
H     6.771000000    -3.154000000     7.028000000
H     5.266000000    -3.118000000     6.869000000
O     4.795000000    -6.072000000     7.310000000
H     5.177000000    -5.991000000     8.184000000
H     4.696000000    -5.169000000     7.008000000
O     0.435000000    -4.174000000     7.689000000
H     1.048000000    -4.296000000     8.414000000
H     0.873000000    -4.572000000     6.936000000
O     3.729000000    -9.815000000     3.734000000
H     4.376000000    -9.354000000     4.268000000
H     3.535000000   -10.612000000     4.227000000
