201
-1260.15730
C    -1.831000000    -5.249000000     0.195000000
H    -1.425000000    -5.237000000    -0.814000000
C    -2.616000000    -4.166000000     0.574000000
C    -3.242000000    -4.175000000     1.813000000
H    -3.915000000    -3.345000000     2.012000000
C    -2.818000000    -3.019000000    -0.409000000
O    -2.704000000    -3.498000000    -1.804000000
H    -2.030000000    -2.251000000    -0.398000000
O    -4.183000000    -2.555000000    -0.167000000
C    -4.437000000    -1.216000000    -0.295000000
C    -4.395000000    -0.444000000     0.839000000
H    -4.069000000    -0.954000000     1.742000000
C    -4.526000000     0.924000000     0.757000000
O    -4.327000000     1.656000000     1.877000000
C    -4.663000000     1.546000000    -0.486000000
C    -4.637000000     3.043000000    -0.760000000
H    -5.099000000     3.156000000    -1.743000000
C    -3.234000000     3.661000000    -0.805000000
C    -2.556000000     3.848000000    -1.999000000
H    -3.061000000     3.649000000    -2.940000000
H    -5.242000000     3.554000000    -0.008000000
C    -4.632000000     0.793000000    -1.700000000
H    -4.707000000     1.299000000    -2.659000000
C    -4.519000000    -0.607000000    -1.601000000
C    -4.393000000    -1.399000000    -2.847000000
H    -4.930000000    -0.967000000    -3.694000000
H    -4.783000000    -2.401000000    -2.659000000
C    -2.937000000    -1.567000000    -3.275000000
C    -2.314000000    -0.732000000    -4.154000000
H    -2.833000000     0.181000000    -4.435000000
C    -2.253000000    -2.688000000    -2.775000000
C    -0.975000000    -2.965000000    -3.261000000
H    -0.441000000    -3.860000000    -2.950000000
C    -0.313000000    -2.114000000    -4.158000000
O     1.058000000    -2.257000000    -4.486000000
C     2.045000000    -1.446000000    -3.706000000
C     3.168000000    -2.331000000    -3.184000000
C     4.322000000    -1.649000000    -2.850000000
H     4.440000000    -0.576000000    -2.976000000
C     2.914000000    -3.603000000    -2.718000000
H     1.969000000    -4.029000000    -3.043000000
O     2.503000000    -0.285000000    -4.408000000
H     1.458000000    -1.109000000    -2.839000000
C    -0.978000000    -0.995000000    -4.647000000
C    -0.184000000    -0.049000000    -5.584000000
H    -0.937000000     0.475000000    -6.177000000
H     0.487000000    -0.581000000    -6.262000000
C     0.499000000     1.015000000    -4.823000000
C    -0.166000000     2.198000000    -4.519000000
H    -1.206000000     2.262000000    -4.828000000
C     1.778000000     0.895000000    -4.299000000
C     2.380000000     1.854000000    -3.492000000
H     3.336000000     1.596000000    -3.045000000
C     1.659000000     3.034000000    -3.176000000
O     2.171000000     3.874000000    -2.242000000
C     1.671000000     3.814000000    -0.897000000
C     2.835000000     3.860000000     0.118000000
C     4.111000000     3.306000000    -0.314000000
H     4.315000000     3.052000000    -1.351000000
C     2.638000000     4.198000000     1.485000000
H     1.655000000     4.544000000     1.797000000
O     0.747000000     4.919000000    -0.620000000
H     1.239000000     2.804000000    -0.839000000
C     0.310000000     3.187000000    -3.663000000
C    -0.460000000     4.464000000    -3.377000000
H    -1.074000000     4.754000000    -4.232000000
H     0.371000000     5.168000000    -3.299000000
C    -1.245000000     4.304000000    -2.033000000
C    -0.636000000     4.618000000    -0.833000000
C    -1.276000000     4.469000000     0.402000000
H    -0.749000000     4.509000000     1.352000000
C    -2.588000000     3.977000000     0.391000000
O    -3.106000000     3.676000000     1.639000000
C    -3.030000000     2.258000000     2.037000000
H    -2.364000000     1.842000000     1.267000000
C    -2.502000000     2.079000000     3.431000000
C    -2.712000000     0.825000000     4.040000000
H    -3.126000000    -0.053000000     3.551000000
C    -1.848000000     3.124000000     4.097000000
H    -1.739000000     4.152000000     3.763000000
C    -1.337000000     2.769000000     5.377000000
O    -0.636000000     3.719000000     6.018000000
C    -1.585000000     1.572000000     6.012000000
H    -1.233000000     1.514000000     7.039000000
C    -2.376000000     0.630000000     5.332000000
O    -2.445000000    -0.610000000     5.899000000
C    -3.372000000    -1.569000000     5.560000000
C    -2.828000000    -2.730000000     5.006000000
H    -1.763000000    -2.925000000     5.097000000
C    -4.768000000    -1.391000000     5.602000000
H    -5.081000000    -0.420000000     5.978000000
C    -5.616000000    -2.406000000     5.259000000
H    -6.676000000    -2.168000000     5.238000000
C    -5.053000000    -3.617000000     4.772000000
H    -5.511000000    -4.547000000     4.445000000
C    -3.653000000    -3.732000000     4.616000000
O    -3.052000000    -4.862000000     4.183000000
C    -2.783000000    -5.058000000     2.798000000
C    -1.967000000    -6.101000000     2.404000000
H    -1.641000000    -6.734000000     3.226000000
C    -1.451000000    -6.184000000     1.085000000
O    -0.466000000    -7.141000000     0.788000000
C     0.416000000    -7.019000000    -0.293000000
C     1.555000000    -6.177000000    -0.214000000
H     1.778000000    -5.510000000     0.614000000
C     0.130000000    -7.837000000    -1.385000000
H    -0.775000000    -8.436000000    -1.321000000
C     1.045000000    -7.766000000    -2.455000000
H     0.877000000    -8.331000000    -3.369000000
C     2.144000000    -6.948000000    -2.402000000
H     2.848000000    -6.919000000    -3.230000000
C     2.491000000    -6.235000000    -1.241000000
O     3.684000000    -5.496000000    -1.321000000
C     3.884000000    -4.222000000    -1.944000000
C     5.108000000    -3.587000000    -1.628000000
H     5.904000000    -4.147000000    -1.146000000
C     5.310000000    -2.283000000    -2.070000000
O     6.428000000    -1.749000000    -1.710000000
C     6.708000000    -0.416000000    -1.700000000
C     6.351000000     0.463000000    -0.635000000
H     5.728000000     0.075000000     0.167000000
C     7.304000000     0.078000000    -2.841000000
H     7.482000000    -0.567000000    -3.698000000
C     7.723000000     1.427000000    -2.934000000
H     8.211000000     1.933000000    -3.764000000
C     7.423000000     2.236000000    -1.844000000
H     7.831000000     3.243000000    -1.858000000
C     6.667000000     1.778000000    -0.779000000
O     6.301000000     2.576000000     0.339000000
C     5.047000000     3.078000000     0.662000000
C     4.831000000     3.415000000     2.007000000
H     5.593000000     3.250000000     2.765000000
C     3.622000000     4.014000000     2.372000000
O     3.528000000     4.238000000     3.702000000
C     2.473000000     4.778000000     4.415000000
C     2.350000000     6.160000000     4.498000000
H     3.030000000     6.823000000     3.969000000
C     1.150000000     6.711000000     5.041000000
H     0.844000000     7.753000000     5.092000000
C     0.178000000     5.869000000     5.601000000
H    -0.766000000     6.298000000     5.927000000
C     0.381000000     4.470000000     5.581000000
C     1.559000000     3.964000000     4.933000000
H     1.796000000     2.915000000     4.774000000
O     4.245000000    -5.366000000     4.371000000
H     3.879000000    -4.613000000     3.908000000
H     3.689000000    -5.466000000     5.143000000
O     3.829000000    -7.367000000     1.702000000
H     4.262000000    -7.320000000     2.555000000
H     4.107000000    -6.571000000     1.249000000
O     6.816000000    -4.942000000     5.708000000
H     6.850000000    -5.440000000     4.891000000
H     5.887000000    -4.925000000     5.940000000
O     6.264000000    -2.056000000     6.732000000
H     5.411000000    -2.486000000     6.676000000
H     6.852000000    -2.732000000     7.068000000
O     2.276000000     0.554000000     3.105000000
H     3.156000000     0.349000000     3.419000000
H     2.325000000     0.432000000     2.157000000
O     7.053000000    -2.957000000     1.130000000
H     7.788000000    -3.532000000     0.918000000
H     7.237000000    -2.148000000     0.652000000
O     5.649000000    -1.832000000     3.479000000
H     4.772000000    -2.210000000     3.409000000
H     6.175000000    -2.328000000     2.852000000
O     0.833000000    -0.415000000     5.160000000
H    -0.081000000    -0.184000000     4.999000000
H     1.299000000    -0.104000000     4.383000000
O    -1.358000000    -4.273000000     7.652000000
H    -1.379000000    -3.935000000     6.757000000
H    -0.426000000    -4.325000000     7.867000000
O     1.713000000     1.380000000     6.969000000
H     2.595000000     1.105000000     6.721000000
H     1.133000000     0.791000000     6.486000000
O     5.278000000    -4.810000000     1.134000000
H     5.985000000    -4.170000000     1.222000000
H     4.499000000    -4.351000000     1.448000000
O     7.390000000     0.063000000     5.360000000
H     6.669000000    -0.033000000     4.738000000
H     7.417000000    -0.773000000     5.825000000
O     1.597000000    -9.071000000     2.146000000
H     2.308000000    -8.532000000     1.800000000
H     0.857000000    -8.892000000     1.567000000
O     4.322000000     0.399000000     4.672000000
H     4.750000000    -0.454000000     4.593000000
H     4.431000000     0.636000000     5.593000000
O     1.201000000    -2.915000000     6.465000000
H     1.200000000    -3.322000000     5.599000000
H     1.255000000    -1.975000000     6.287000000
O    -0.152000000    -5.431000000     5.330000000
H    -1.061000000    -5.391000000     5.033000000
H     0.358000000    -5.121000000     4.581000000
O     3.902000000    -3.528000000     7.048000000
H     3.756000000    -3.539000000     7.994000000
H     3.024000000    -3.475000000     6.671000000
O     5.901000000    -7.342000000     3.722000000
H     5.461000000    -6.503000000     3.854000000
H     5.568000000    -7.901000000     4.424000000
O     0.528000000    -7.737000000     6.455000000
H     1.357000000    -7.620000000     6.920000000
H     0.316000000    -6.865000000     6.121000000
