201
-1237.74681
C    -2.461000000    -4.560000000     0.175000000
H    -2.615000000    -4.476000000    -0.898000000
C    -3.034000000    -3.653000000     1.050000000
C    -3.017000000    -3.973000000     2.416000000
H    -3.474000000    -3.355000000     3.185000000
C    -3.617000000    -2.358000000     0.562000000
O    -4.170000000    -2.584000000    -0.756000000
H    -2.828000000    -1.593000000     0.516000000
O    -4.677000000    -1.906000000     1.384000000
C    -4.596000000    -0.562000000     1.663000000
C    -3.830000000    -0.240000000     2.749000000
H    -3.576000000    -0.950000000     3.532000000
C    -3.443000000     1.032000000     2.899000000
O    -2.623000000     1.366000000     3.894000000
C    -3.785000000     2.006000000     1.931000000
C    -3.549000000     3.452000000     2.055000000
H    -4.309000000     4.072000000     1.574000000
C    -2.207000000     3.882000000     1.429000000
C    -2.179000000     4.267000000     0.034000000
H    -3.137000000     4.473000000    -0.434000000
H    -3.692000000     3.791000000     3.083000000
C    -4.494000000     1.675000000     0.796000000
H    -4.704000000     2.539000000     0.171000000
C    -4.924000000     0.361000000     0.655000000
C    -5.587000000     0.049000000    -0.631000000
H    -6.098000000     0.961000000    -0.946000000
H    -6.351000000    -0.721000000    -0.504000000
C    -4.549000000    -0.361000000    -1.667000000
C    -4.191000000     0.515000000    -2.687000000
H    -4.711000000     1.468000000    -2.743000000
C    -3.977000000    -1.623000000    -1.719000000
C    -2.970000000    -1.899000000    -2.601000000
H    -2.595000000    -2.915000000    -2.504000000
C    -2.686000000    -1.044000000    -3.562000000
O    -1.650000000    -1.348000000    -4.406000000
C    -0.402000000    -0.816000000    -4.078000000
C     0.696000000    -1.896000000    -4.237000000
C     2.035000000    -1.469000000    -4.139000000
H     2.255000000    -0.437000000    -3.878000000
C     0.389000000    -3.224000000    -4.396000000
H    -0.638000000    -3.576000000    -4.447000000
O    -0.075000000     0.356000000    -4.887000000
H    -0.382000000    -0.496000000    -3.026000000
C    -3.204000000     0.224000000    -3.642000000
C    -2.808000000     1.192000000    -4.700000000
H    -3.734000000     1.734000000    -4.905000000
H    -2.553000000     0.705000000    -5.644000000
C    -1.648000000     2.042000000    -4.182000000
C    -1.803000000     3.267000000    -3.427000000
H    -2.803000000     3.636000000    -3.211000000
C    -0.381000000     1.587000000    -4.382000000
C     0.709000000     2.305000000    -3.853000000
H     1.731000000     1.937000000    -3.895000000
C     0.515000000     3.459000000    -3.088000000
O     1.634000000     4.060000000    -2.565000000
C     1.900000000     3.901000000    -1.139000000
C     3.392000000     3.682000000    -0.751000000
C     4.198000000     2.940000000    -1.592000000
H     3.791000000     2.494000000    -2.496000000
C     3.945000000     4.156000000     0.448000000
H     3.355000000     4.598000000     1.247000000
O     1.349000000     4.943000000    -0.339000000
H     1.319000000     3.017000000    -0.840000000
C    -0.740000000     3.934000000    -2.831000000
C    -1.009000000     5.139000000    -1.989000000
H    -1.947000000     5.644000000    -2.229000000
H    -0.236000000     5.878000000    -2.209000000
C    -0.997000000     4.657000000    -0.495000000
C     0.149000000     4.713000000     0.279000000
C     0.188000000     4.317000000     1.643000000
H     1.057000000     4.461000000     2.279000000
C    -1.017000000     3.853000000     2.206000000
O    -1.099000000     3.256000000     3.405000000
C    -1.242000000     1.793000000     3.590000000
H    -1.078000000     1.358000000     2.592000000
C    -0.190000000     1.207000000     4.483000000
C    -0.262000000    -0.172000000     4.753000000
H    -1.148000000    -0.769000000     4.551000000
C     1.054000000     1.896000000     4.716000000
H     1.140000000     2.951000000     4.470000000
C     2.120000000     1.237000000     5.319000000
O     3.399000000     1.790000000     5.241000000
C     2.040000000    -0.107000000     5.601000000
H     2.839000000    -0.676000000     6.068000000
C     0.889000000    -0.848000000     5.231000000
O     0.837000000    -2.182000000     5.569000000
C    -0.287000000    -2.905000000     5.732000000
C    -0.742000000    -3.782000000     4.839000000
H    -0.229000000    -3.975000000     3.901000000
C    -0.993000000    -2.849000000     6.967000000
H    -0.563000000    -2.306000000     7.804000000
C    -2.127000000    -3.621000000     7.268000000
H    -2.609000000    -3.622000000     8.243000000
C    -2.577000000    -4.501000000     6.230000000
H    -3.459000000    -5.136000000     6.256000000
C    -1.865000000    -4.570000000     5.088000000
O    -2.225000000    -5.446000000     4.186000000
C    -2.311000000    -5.103000000     2.855000000
C    -1.769000000    -6.007000000     1.913000000
H    -1.280000000    -6.914000000     2.259000000
C    -1.774000000    -5.716000000     0.556000000
O    -1.288000000    -6.688000000    -0.286000000
C    -1.238000000    -6.581000000    -1.661000000
C    -0.128000000    -5.991000000    -2.258000000
H     0.631000000    -5.462000000    -1.688000000
C    -2.234000000    -7.129000000    -2.385000000
H    -3.004000000    -7.725000000    -1.902000000
C    -2.083000000    -7.174000000    -3.820000000
H    -2.790000000    -7.702000000    -4.454000000
C    -0.993000000    -6.608000000    -4.464000000
H    -0.932000000    -6.651000000    -5.549000000
C    -0.039000000    -6.012000000    -3.651000000
O     1.117000000    -5.541000000    -4.279000000
C     1.406000000    -4.195000000    -4.270000000
C     2.735000000    -3.822000000    -4.158000000
H     3.501000000    -4.571000000    -3.971000000
C     3.033000000    -2.415000000    -4.025000000
O     4.361000000    -1.959000000    -3.906000000
C     4.815000000    -0.663000000    -4.134000000
C     5.236000000     0.123000000    -3.056000000
H     5.080000000    -0.284000000    -2.061000000
C     5.187000000    -0.368000000    -5.462000000
H     4.933000000    -1.030000000    -6.286000000
C     5.886000000     0.828000000    -5.687000000
H     6.081000000     1.154000000    -6.705000000
C     6.151000000     1.701000000    -4.600000000
H     6.734000000     2.598000000    -4.794000000
C     5.870000000     1.340000000    -3.297000000
O     6.287000000     2.096000000    -2.218000000
C     5.520000000     2.739000000    -1.323000000
C     6.109000000     3.302000000    -0.238000000
H     7.180000000     3.174000000    -0.100000000
C     5.289000000     3.895000000     0.733000000
O     5.824000000     4.379000000     1.917000000
C     5.127000000     4.329000000     3.065000000
C     5.042000000     5.467000000     3.963000000
H     5.529000000     6.383000000     3.638000000
C     4.190000000     5.310000000     5.095000000
H     3.818000000     6.120000000     5.717000000
C     3.588000000     4.111000000     5.436000000
H     2.919000000     4.110000000     6.292000000
C     3.798000000     2.971000000     4.676000000
C     4.586000000     3.095000000     3.451000000
H     4.686000000     2.289000000     2.728000000
O     7.139000000     1.340000000     3.424000000
H     6.470000000     1.094000000     4.063000000
H     7.084000000     0.665000000     2.748000000
O     4.063000000    -7.652000000    -0.080000000
H     4.032000000    -8.228000000    -0.844000000
H     4.242000000    -6.784000000    -0.440000000
O     4.610000000    -4.595000000     3.226000000
H     4.146000000    -4.199000000     2.488000000
H     4.015000000    -5.272000000     3.548000000
O     6.804000000    -3.591000000     0.118000000
H     6.189000000    -3.369000000     0.817000000
H     7.013000000    -4.514000000     0.267000000
O     6.677000000    -6.630000000    -2.306000000
H     6.397000000    -5.720000000    -2.407000000
H     7.214000000    -6.628000000    -1.514000000
O     5.909000000    -4.149000000    -3.301000000
H     5.267000000    -3.450000000    -3.424000000
H     6.740000000    -3.763000000    -3.577000000
O     6.794000000    -0.541000000     1.360000000
H     7.174000000    -1.111000000     0.691000000
H     5.930000000    -0.917000000     1.532000000
O     5.389000000    -0.630000000     4.432000000
H     5.809000000    -1.457000000     4.669000000
H     4.801000000    -0.858000000     3.712000000
O     4.007000000    -4.941000000    -0.972000000
H     3.808000000    -4.229000000    -0.365000000
H     4.615000000    -4.556000000    -1.603000000
O     2.526000000    -6.834000000     4.130000000
H     2.225000000    -6.446000000     3.309000000
H     1.785000000    -7.360000000     4.433000000
O     2.472000000    -5.812000000     1.388000000
H     3.210000000    -6.048000000     0.826000000
H     2.234000000    -4.927000000     1.112000000
O     8.241000000    -5.408000000     4.501000000
H     7.505000000    -4.798000000     4.461000000
H     9.000000000    -4.885000000     4.243000000
O     2.980000000    -4.398000000     6.186000000
H     2.759000000    -5.329000000     6.151000000
H     2.139000000    -3.949000000     6.098000000
O     1.406000000    -8.744000000     1.546000000
H     2.310000000    -9.049000000     1.625000000
H     1.484000000    -7.800000000     1.411000000
O     9.361000000    -2.847000000    -1.065000000
H     8.959000000    -2.879000000    -1.933000000
H     8.665000000    -3.123000000    -0.469000000
O     8.527000000    -0.166000000     5.327000000
H     8.409000000     0.658000000     4.855000000
H     8.178000000    -0.833000000     4.736000000
O     6.004000000    -3.543000000     5.263000000
H     5.729000000    -3.537000000     6.179000000
H     5.204000000    -3.736000000     4.774000000
O     6.113000000     1.217000000     6.504000000
H     5.458000000     0.824000000     5.927000000
H     6.141000000     0.636000000     7.265000000
O     8.832000000     1.322000000     0.832000000
H     7.996000000     0.859000000     0.780000000
H     8.698000000     1.983000000     1.512000000
