201
-1253.74152
C    -1.407000000    -4.008000000     0.295000000
H    -1.344000000    -3.534000000    -0.681000000
C    -2.441000000    -3.614000000     1.151000000
C    -2.389000000    -4.049000000     2.475000000
H    -3.097000000    -3.658000000     3.201000000
C    -3.355000000    -2.543000000     0.590000000
O    -3.939000000    -2.789000000    -0.699000000
H    -2.672000000    -1.683000000     0.524000000
O    -4.352000000    -2.234000000     1.556000000
C    -4.451000000    -0.922000000     1.876000000
C    -3.921000000    -0.510000000     3.053000000
H    -3.448000000    -1.278000000     3.660000000
C    -3.635000000     0.847000000     3.239000000
O    -2.759000000     1.213000000     4.211000000
C    -4.162000000     1.793000000     2.372000000
C    -3.849000000     3.306000000     2.560000000
H    -4.699000000     3.855000000     2.150000000
C    -2.554000000     3.633000000     1.836000000
C    -2.526000000     4.177000000     0.538000000
H    -3.463000000     4.255000000    -0.007000000
H    -3.734000000     3.695000000     3.574000000
C    -4.844000000     1.404000000     1.233000000
H    -5.442000000     2.088000000     0.636000000
C    -4.922000000     0.010000000     0.947000000
C    -5.601000000    -0.532000000    -0.345000000
H    -6.353000000     0.198000000    -0.652000000
H    -6.145000000    -1.452000000    -0.118000000
C    -4.585000000    -0.628000000    -1.437000000
C    -4.407000000     0.402000000    -2.353000000
H    -4.943000000     1.320000000    -2.125000000
C    -3.793000000    -1.718000000    -1.590000000
C    -2.878000000    -1.859000000    -2.583000000
H    -2.341000000    -2.786000000    -2.764000000
C    -2.764000000    -0.916000000    -3.571000000
O    -1.862000000    -1.107000000    -4.564000000
C    -0.620000000    -0.470000000    -4.316000000
C     0.599000000    -1.237000000    -4.790000000
C     1.812000000    -0.631000000    -5.147000000
H     1.869000000     0.428000000    -5.387000000
C     0.513000000    -2.654000000    -4.670000000
H    -0.397000000    -3.170000000    -4.373000000
O    -0.576000000     0.828000000    -4.934000000
H    -0.454000000    -0.308000000    -3.241000000
C    -3.421000000     0.347000000    -3.391000000
C    -3.243000000     1.540000000    -4.309000000
H    -4.145000000     2.147000000    -4.413000000
H    -3.080000000     1.218000000    -5.340000000
C    -2.110000000     2.406000000    -3.777000000
C    -2.282000000     3.526000000    -2.942000000
H    -3.296000000     3.716000000    -2.598000000
C    -0.824000000     1.991000000    -4.149000000
C     0.320000000     2.666000000    -3.677000000
H     1.305000000     2.259000000    -3.892000000
C     0.162000000     3.800000000    -2.860000000
O     1.226000000     4.437000000    -2.251000000
C     1.569000000     3.876000000    -1.006000000
C     3.065000000     3.587000000    -1.009000000
C     3.811000000     3.080000000    -2.064000000
H     3.321000000     3.055000000    -3.034000000
C     3.698000000     3.602000000     0.238000000
H     3.179000000     4.057000000     1.078000000
O     1.114000000     4.778000000     0.105000000
H     1.123000000     2.875000000    -0.915000000
C    -1.138000000     4.222000000    -2.486000000
C    -1.366000000     5.286000000    -1.430000000
H    -2.308000000     5.806000000    -1.613000000
H    -0.697000000     6.131000000    -1.607000000
C    -1.356000000     4.653000000    -0.092000000
C    -0.145000000     4.458000000     0.601000000
C    -0.169000000     3.858000000     1.859000000
H     0.803000000     3.675000000     2.310000000
C    -1.346000000     3.469000000     2.536000000
O    -1.277000000     2.873000000     3.750000000
C    -1.408000000     1.508000000     3.807000000
H    -1.259000000     1.198000000     2.762000000
C    -0.326000000     0.850000000     4.678000000
C    -0.591000000    -0.270000000     5.461000000
H    -1.662000000    -0.442000000     5.529000000
C     1.033000000     1.162000000     4.382000000
H     1.314000000     1.966000000     3.708000000
C     2.005000000     0.320000000     4.876000000
O     3.351000000     0.451000000     4.425000000
C     1.734000000    -0.771000000     5.643000000
H     2.499000000    -1.445000000     6.019000000
C     0.451000000    -1.048000000     5.960000000
O     0.252000000    -2.078000000     6.830000000
C    -0.697000000    -3.067000000     6.643000000
C    -0.702000000    -3.778000000     5.464000000
H     0.025000000    -3.712000000     4.659000000
C    -1.540000000    -3.356000000     7.699000000
H    -1.519000000    -2.778000000     8.619000000
C    -2.389000000    -4.447000000     7.572000000
H    -2.992000000    -4.698000000     8.441000000
C    -2.501000000    -5.156000000     6.350000000
H    -3.227000000    -5.964000000     6.323000000
C    -1.623000000    -4.792000000     5.284000000
O    -1.433000000    -5.515000000     4.148000000
C    -1.494000000    -5.050000000     2.845000000
C    -0.546000000    -5.471000000     1.924000000
H     0.213000000    -6.204000000     2.184000000
C    -0.496000000    -5.004000000     0.625000000
O     0.595000000    -5.389000000    -0.140000000
C     0.492000000    -5.827000000    -1.434000000
C     1.082000000    -5.102000000    -2.502000000
H     1.770000000    -4.308000000    -2.224000000
C    -0.444000000    -6.845000000    -1.753000000
H    -0.993000000    -7.354000000    -0.964000000
C    -0.703000000    -7.180000000    -3.074000000
H    -1.497000000    -7.888000000    -3.297000000
C    -0.011000000    -6.550000000    -4.078000000
H    -0.208000000    -6.854000000    -5.103000000
C     0.840000000    -5.444000000    -3.817000000
O     1.514000000    -4.755000000    -4.808000000
C     1.609000000    -3.381000000    -4.868000000
C     2.797000000    -2.809000000    -5.323000000
H     3.684000000    -3.377000000    -5.587000000
C     2.961000000    -1.405000000    -5.381000000
O     4.096000000    -0.966000000    -6.006000000
C     4.596000000     0.308000000    -5.789000000
C     4.928000000     0.714000000    -4.464000000
H     4.928000000     0.012000000    -3.633000000
C     4.365000000     1.350000000    -6.731000000
H     3.876000000     1.123000000    -7.675000000
C     4.833000000     2.677000000    -6.508000000
H     4.705000000     3.474000000    -7.237000000
C     5.446000000     2.938000000    -5.198000000
H     5.761000000     3.915000000    -4.841000000
C     5.471000000     1.924000000    -4.245000000
O     5.936000000     2.216000000    -2.928000000
C     5.162000000     2.713000000    -1.914000000
C     5.728000000     2.863000000    -0.660000000
H     6.749000000     2.546000000    -0.465000000
C     5.039000000     3.306000000     0.387000000
O     5.654000000     3.521000000     1.644000000
C     5.158000000     3.251000000     2.844000000
C     5.292000000     4.161000000     3.900000000
H     5.630000000     5.177000000     3.712000000
C     4.826000000     3.772000000     5.158000000
H     4.918000000     4.437000000     6.012000000
C     4.144000000     2.571000000     5.334000000
H     3.658000000     2.399000000     6.291000000
C     3.979000000     1.706000000     4.270000000
C     4.484000000     2.037000000     3.062000000
H     4.507000000     1.324000000     2.242000000
O     3.507000000    -6.820000000    -1.374000000
H     3.912000000    -5.972000000    -1.552000000
H     2.741000000    -6.612000000    -0.839000000
O     8.609000000    -4.096000000     0.520000000
H     7.710000000    -4.054000000     0.848000000
H     9.054000000    -4.696000000     1.118000000
O     3.232000000    -7.917000000     4.190000000
H     3.316000000    -7.123000000     3.662000000
H     2.715000000    -8.512000000     3.646000000
O     4.781000000    -4.687000000    -2.032000000
H     5.506000000    -5.009000000    -2.568000000
H     4.855000000    -3.734000000    -2.075000000
O     6.135000000    -4.780000000     1.518000000
H     5.789000000    -5.662000000     1.386000000
H     5.373000000    -4.208000000     1.425000000
O     8.935000000    -3.291000000    -3.341000000
H     9.060000000    -2.345000000    -3.267000000
H     8.170000000    -3.474000000    -2.796000000
O     7.204000000    -4.283000000     4.194000000
H     7.085000000    -3.344000000     4.050000000
H     6.669000000    -4.699000000     3.517000000
O     2.023000000    -5.140000000     6.095000000
H     2.868000000    -5.337000000     6.500000000
H     2.238000000    -4.916000000     5.190000000
O     6.341000000    -0.448000000     1.228000000
H     5.659000000    -0.989000000     0.830000000
H     6.370000000     0.339000000     0.684000000
O     9.094000000    -0.521000000    -2.710000000
H     8.552000000    -0.569000000    -1.923000000
H     9.623000000     0.268000000    -2.588000000
O     5.241000000    -1.969000000     4.089000000
H     4.846000000    -2.067000000     3.223000000
H     5.408000000    -1.030000000     4.172000000
O     5.448000000    -7.260000000     0.863000000
H     5.278000000    -7.385000000    -0.071000000
H     6.074000000    -7.948000000     1.087000000
O     8.280000000    -0.815000000     3.473000000
H     7.785000000    -1.050000000     2.689000000
H     7.867000000    -0.010000000     3.785000000
O     3.340000000    -6.322000000     2.080000000
H     4.058000000    -6.763000000     1.625000000
H     3.263000000    -5.475000000     1.641000000
O     7.162000000    -1.973000000    -1.023000000
H     7.790000000    -2.577000000    -0.626000000
H     6.317000000    -2.226000000    -0.650000000
O     6.733000000    -5.453000000    -3.711000000
H     7.520000000    -5.975000000    -3.864000000
H     6.310000000    -5.400000000    -4.568000000
O     5.175000000    -1.975000000     6.835000000
H     6.061000000    -1.643000000     6.977000000
H     5.094000000    -2.041000000     5.883000000
O     2.707000000    -3.846000000     3.781000000
H     2.990000000    -3.852000000     2.866000000
H     3.287000000    -3.215000000     4.207000000
O     4.745000000    -4.963000000     6.896000000
H     5.296000000    -4.515000000     7.538000000
H     4.777000000    -4.403000000     6.121000000
