201
-1242.26645
C    -1.105000000    -5.023000000    -0.090000000
H    -1.527000000    -4.647000000    -1.019000000
C    -1.742000000    -4.661000000     1.128000000
C    -0.951000000    -4.733000000     2.285000000
H    -1.329000000    -4.312000000     3.213000000
C    -2.772000000    -3.576000000     0.981000000
O    -3.732000000    -3.626000000    -0.031000000
H    -2.098000000    -2.728000000     0.788000000
O    -3.494000000    -3.233000000     2.219000000
C    -3.424000000    -1.911000000     2.640000000
C    -2.407000000    -1.464000000     3.419000000
H    -1.719000000    -2.182000000     3.859000000
C    -2.348000000    -0.159000000     3.808000000
O    -1.200000000     0.329000000     4.446000000
C    -3.262000000     0.743000000     3.308000000
C    -3.229000000     2.211000000     3.566000000
H    -4.197000000     2.712000000     3.505000000
C    -2.287000000     3.043000000     2.707000000
C    -2.894000000     3.803000000     1.650000000
H    -3.956000000     3.697000000     1.442000000
H    -3.053000000     2.373000000     4.631000000
C    -4.250000000     0.254000000     2.447000000
H    -4.900000000     1.032000000     2.055000000
C    -4.365000000    -1.057000000     2.163000000
C    -5.428000000    -1.554000000     1.109000000
H    -6.283000000    -0.875000000     1.147000000
H    -5.860000000    -2.525000000     1.357000000
C    -4.876000000    -1.513000000    -0.305000000
C    -5.034000000    -0.330000000    -1.059000000
H    -5.670000000     0.423000000    -0.602000000
C    -3.970000000    -2.505000000    -0.769000000
C    -3.467000000    -2.406000000    -2.074000000
H    -2.805000000    -3.151000000    -2.508000000
C    -3.530000000    -1.212000000    -2.804000000
O    -2.833000000    -1.115000000    -3.954000000
C    -1.622000000    -0.358000000    -3.930000000
C    -0.471000000    -1.049000000    -4.681000000
C     0.700000000    -0.311000000    -5.023000000
H     0.721000000     0.757000000    -4.824000000
C    -0.492000000    -2.439000000    -4.911000000
H    -1.431000000    -2.939000000    -4.688000000
O    -1.969000000     0.961000000    -4.463000000
H    -1.224000000    -0.345000000    -2.905000000
C    -4.359000000    -0.184000000    -2.245000000
C    -4.511000000     1.118000000    -3.053000000
H    -5.422000000     1.616000000    -2.717000000
H    -4.724000000     0.770000000    -4.066000000
C    -3.344000000     2.006000000    -2.793000000
C    -3.474000000     3.014000000    -1.809000000
H    -4.388000000     3.045000000    -1.222000000
C    -2.235000000     1.976000000    -3.539000000
C    -1.210000000     2.870000000    -3.331000000
H    -0.337000000     2.679000000    -3.950000000
C    -1.180000000     3.790000000    -2.326000000
O     0.021000000     4.554000000    -2.163000000
C     0.724000000     4.299000000    -0.847000000
C     2.237000000     4.463000000    -1.109000000
C     2.846000000     4.021000000    -2.256000000
H     2.174000000     3.521000000    -2.949000000
C     3.078000000     4.832000000    -0.027000000
H     2.652000000     5.131000000     0.927000000
O     0.221000000     5.141000000     0.225000000
H     0.649000000     3.235000000    -0.579000000
C    -2.365000000     3.890000000    -1.558000000
C    -2.578000000     5.001000000    -0.488000000
H    -3.622000000     5.315000000    -0.423000000
H    -2.045000000     5.931000000    -0.698000000
C    -2.021000000     4.529000000     0.868000000
C    -0.662000000     4.596000000     1.125000000
C    -0.112000000     3.901000000     2.198000000
H     0.954000000     3.963000000     2.402000000
C    -0.925000000     3.165000000     3.010000000
O    -0.273000000     2.417000000     3.918000000
C    -0.179000000     0.945000000     3.709000000
H    -0.308000000     0.716000000     2.641000000
C     1.158000000     0.435000000     4.145000000
C     1.434000000    -0.732000000     4.880000000
H     0.588000000    -1.405000000     4.987000000
C     2.328000000     1.214000000     3.934000000
H     2.251000000     2.072000000     3.271000000
C     3.599000000     0.881000000     4.392000000
O     4.692000000     1.702000000     4.199000000
C     3.741000000    -0.270000000     5.105000000
H     4.733000000    -0.582000000     5.424000000
C     2.701000000    -1.159000000     5.249000000
O     2.879000000    -2.331000000     5.993000000
C     2.048000000    -3.397000000     5.940000000
C     1.860000000    -4.008000000     4.727000000
H     2.510000000    -3.708000000     3.909000000
C     1.315000000    -3.806000000     7.063000000
H     1.473000000    -3.379000000     8.051000000
C     0.416000000    -4.845000000     6.961000000
H    -0.239000000    -5.045000000     7.805000000
C     0.169000000    -5.433000000     5.710000000
H    -0.608000000    -6.188000000     5.624000000
C     0.926000000    -5.062000000     4.611000000
O     0.830000000    -5.822000000     3.499000000
C     0.211000000    -5.481000000     2.241000000
C     0.834000000    -5.871000000     1.060000000
H     1.765000000    -6.430000000     1.092000000
C     0.142000000    -5.663000000    -0.125000000
O     0.773000000    -5.984000000    -1.323000000
C     0.214000000    -6.118000000    -2.552000000
C     0.564000000    -5.223000000    -3.586000000
H     1.165000000    -4.371000000    -3.278000000
C    -0.688000000    -7.117000000    -2.880000000
H    -0.954000000    -7.858000000    -2.131000000
C    -1.284000000    -7.246000000    -4.173000000
H    -1.907000000    -8.110000000    -4.390000000
C    -0.853000000    -6.390000000    -5.158000000
H    -1.280000000    -6.471000000    -6.155000000
C     0.070000000    -5.375000000    -4.880000000
O     0.472000000    -4.477000000    -5.867000000
C     0.631000000    -3.118000000    -5.535000000
C     1.771000000    -2.344000000    -5.751000000
H     2.627000000    -2.827000000    -6.217000000
C     1.817000000    -0.979000000    -5.481000000
O     3.041000000    -0.332000000    -5.767000000
C     3.200000000     1.040000000    -5.634000000
C     3.943000000     1.626000000    -4.605000000
H     4.489000000     1.036000000    -3.873000000
C     2.669000000     1.858000000    -6.601000000
H     2.167000000     1.395000000    -7.447000000
C     2.789000000     3.245000000    -6.520000000
H     2.272000000     3.849000000    -7.261000000
C     3.564000000     3.808000000    -5.510000000
H     3.655000000     4.891000000    -5.464000000
C     4.153000000     2.987000000    -4.551000000
O     4.853000000     3.662000000    -3.638000000
C     4.259000000     4.062000000    -2.438000000
C     5.117000000     4.497000000    -1.414000000
H     6.192000000     4.443000000    -1.561000000
C     4.473000000     4.803000000    -0.205000000
O     5.291000000     5.196000000     0.893000000
C     4.962000000     4.817000000     2.181000000
C     4.322000000     5.714000000     2.968000000
H     4.191000000     6.744000000     2.647000000
C     3.797000000     5.314000000     4.212000000
H     3.268000000     6.070000000     4.786000000
C     3.911000000     3.961000000     4.573000000
H     3.508000000     3.647000000     5.533000000
C     4.604000000     3.042000000     3.775000000
C     5.120000000     3.491000000     2.527000000
H     5.731000000     2.808000000     1.943000000
O     4.849000000    -9.484000000    -0.953000000
H     4.368000000   -10.145000000    -1.450000000
H     4.348000000    -8.678000000    -1.078000000
O     7.074000000    -5.773000000     3.024000000
H     6.773000000    -6.570000000     3.460000000
H     6.591000000    -5.755000000     2.198000000
O     5.184000000    -1.934000000    -3.718000000
H     5.127000000    -2.267000000    -4.614000000
H     4.576000000    -2.481000000    -3.220000000
O     5.541000000     1.603000000    -0.520000000
H     5.458000000     2.189000000    -1.272000000
H     4.642000000     1.342000000    -0.319000000
O     7.409000000    -8.569000000    -0.649000000
H     7.317000000    -7.670000000    -0.334000000
H     6.558000000    -8.972000000    -0.478000000
O     4.669000000    -2.934000000     2.075000000
H     4.071000000    -3.440000000     1.525000000
H     5.043000000    -2.280000000     1.484000000
O     2.909000000    -5.651000000    -6.618000000
H     2.049000000    -5.247000000    -6.497000000
H     2.796000000    -6.234000000    -7.369000000
O     6.463000000    -4.111000000    -2.010000000
H     5.560000000    -4.343000000    -1.794000000
H     6.383000000    -3.412000000    -2.658000000
O     3.793000000    -6.959000000    -1.273000000
H     3.661000000    -6.835000000    -2.213000000
H     3.619000000    -6.098000000    -0.892000000
O     3.362000000     0.585000000     0.575000000
H     4.015000000    -0.094000000     0.743000000
H     2.642000000     0.124000000     0.144000000
O     5.188000000    -7.928000000    -4.715000000
H     4.408000000    -8.481000000    -4.754000000
H     4.851000000    -7.051000000    -4.529000000
O     9.129000000    -4.618000000    -2.573000000
H     8.366000000    -4.719000000    -2.003000000
H     8.784000000    -4.201000000    -3.363000000
O     8.452000000    -0.963000000    -0.295000000
H     7.640000000    -1.289000000     0.094000000
H     9.112000000    -1.611000000    -0.049000000
O     3.548000000    -5.846000000    -3.860000000
H     3.068000000    -5.602000000    -4.652000000
H     3.494000000    -5.072000000    -3.300000000
O     6.174000000    -0.655000000     1.274000000
H     6.302000000    -0.379000000     2.182000000
H     6.417000000     0.112000000     0.754000000
O     1.887000000    -8.831000000    -0.339000000
H     2.226000000    -8.980000000     0.544000000
H     2.314000000    -8.024000000    -0.627000000
O     7.309000000    -0.364000000    -2.955000000
H     7.644000000    -0.566000000    -2.081000000
H     6.662000000    -1.048000000    -3.128000000
O     5.599000000    -3.821000000    -6.192000000
H     6.508000000    -4.119000000    -6.226000000
H     5.103000000    -4.593000000    -5.918000000
O     6.538000000    -6.047000000     0.120000000
H     5.585000000    -6.115000000     0.062000000
H     6.742000000    -5.200000000    -0.275000000
