201
-1233.97575
C     0.008000000    -5.673000000    -0.392000000
H    -0.896000000    -5.684000000    -0.996000000
C     0.036000000    -4.825000000     0.748000000
C     1.227000000    -4.863000000     1.579000000
H     1.294000000    -4.266000000     2.484000000
C    -1.132000000    -3.934000000     1.068000000
O    -2.370000000    -4.348000000     0.453000000
H    -0.850000000    -2.902000000     0.813000000
O    -1.348000000    -3.977000000     2.524000000
C    -1.802000000    -2.860000000     3.217000000
C    -0.781000000    -2.189000000     3.797000000
H     0.215000000    -2.615000000     3.886000000
C    -1.043000000    -0.939000000     4.397000000
O     0.049000000    -0.240000000     4.906000000
C    -2.328000000    -0.313000000     4.317000000
C    -2.496000000     1.072000000     4.883000000
H    -3.553000000     1.178000000     5.139000000
C    -2.073000000     2.160000000     3.952000000
C    -2.968000000     2.496000000     2.911000000
H    -3.932000000     1.993000000     2.917000000
H    -1.974000000     1.017000000     5.841000000
C    -3.352000000    -1.058000000     3.689000000
H    -4.353000000    -0.642000000     3.770000000
C    -3.072000000    -2.302000000     3.080000000
C    -4.162000000    -3.042000000     2.433000000
H    -5.184000000    -2.739000000     2.669000000
H    -4.008000000    -4.116000000     2.558000000
C    -4.068000000    -2.695000000     0.905000000
C    -4.730000000    -1.573000000     0.385000000
H    -5.457000000    -0.998000000     0.954000000
C    -3.244000000    -3.377000000     0.036000000
C    -3.102000000    -3.013000000    -1.327000000
H    -2.375000000    -3.537000000    -1.943000000
C    -3.788000000    -1.992000000    -1.911000000
O    -3.340000000    -1.579000000    -3.152000000
C    -2.637000000    -0.368000000    -3.308000000
C    -1.574000000    -0.624000000    -4.322000000
C    -1.120000000     0.431000000    -5.176000000
H    -1.644000000     1.383000000    -5.193000000
C    -0.814000000    -1.802000000    -4.351000000
H    -1.107000000    -2.568000000    -3.637000000
O    -3.517000000     0.703000000    -3.664000000
H    -2.169000000    -0.148000000    -2.336000000
C    -4.625000000    -1.209000000    -0.987000000
C    -5.352000000     0.016000000    -1.476000000
H    -6.215000000     0.100000000    -0.811000000
H    -5.754000000    -0.296000000    -2.442000000
C    -4.436000000     1.295000000    -1.474000000
C    -4.484000000     2.136000000    -0.381000000
H    -5.160000000     1.954000000     0.450000000
C    -3.585000000     1.564000000    -2.576000000
C    -2.756000000     2.686000000    -2.506000000
H    -2.097000000     2.998000000    -3.311000000
C    -2.637000000     3.329000000    -1.287000000
O    -1.672000000     4.306000000    -1.308000000
C    -0.542000000     4.032000000    -0.452000000
C     0.712000000     4.667000000    -1.055000000
C     0.866000000     4.697000000    -2.444000000
H     0.016000000     4.309000000    -2.998000000
C     1.850000000     5.050000000    -0.280000000
H     1.810000000     5.004000000     0.805000000
O    -0.748000000     4.592000000     0.810000000
H    -0.416000000     2.943000000    -0.369000000
C    -3.569000000     3.159000000    -0.251000000
C    -3.626000000     3.962000000     1.000000000
H    -4.609000000     3.880000000     1.469000000
H    -3.397000000     5.029000000     0.949000000
C    -2.546000000     3.440000000     1.908000000
C    -1.253000000     3.855000000     1.856000000
C    -0.368000000     3.498000000     2.790000000
H     0.686000000     3.755000000     2.734000000
C    -0.739000000     2.615000000     3.803000000
O     0.315000000     2.061000000     4.491000000
C     0.738000000     0.757000000     4.064000000
H     0.412000000     0.568000000     3.030000000
C     2.246000000     0.636000000     4.111000000
C     2.880000000    -0.562000000     4.524000000
H     2.275000000    -1.376000000     4.914000000
C     3.017000000     1.693000000     3.602000000
H     2.563000000     2.561000000     3.129000000
C     4.370000000     1.560000000     3.613000000
O     5.185000000     2.536000000     3.208000000
C     5.003000000     0.383000000     4.036000000
H     6.081000000     0.240000000     4.031000000
C     4.273000000    -0.756000000     4.483000000
O     4.792000000    -1.887000000     4.942000000
C     4.260000000    -3.117000000     4.615000000
C     4.314000000    -3.625000000     3.320000000
H     4.852000000    -3.239000000     2.458000000
C     3.625000000    -3.827000000     5.629000000
H     3.452000000    -3.344000000     6.587000000
C     2.956000000    -5.023000000     5.470000000
H     2.491000000    -5.542000000     6.304000000
C     2.981000000    -5.570000000     4.215000000
H     2.631000000    -6.593000000     4.104000000
C     3.669000000    -4.883000000     3.123000000
O     3.597000000    -5.428000000     1.793000000
C     2.349000000    -5.572000000     1.096000000
C     2.327000000    -6.227000000    -0.149000000
H     3.201000000    -6.709000000    -0.580000000
C     1.157000000    -6.296000000    -0.847000000
O     1.185000000    -6.945000000    -2.072000000
C     0.742000000    -6.315000000    -3.235000000
C     1.174000000    -5.018000000    -3.509000000
H     1.967000000    -4.584000000    -2.904000000
C    -0.241000000    -6.921000000    -3.992000000
H    -0.682000000    -7.875000000    -3.714000000
C    -0.833000000    -6.297000000    -5.095000000
H    -1.616000000    -6.774000000    -5.679000000
C    -0.422000000    -4.995000000    -5.394000000
H    -0.915000000    -4.497000000    -6.225000000
C     0.561000000    -4.368000000    -4.641000000
O     1.063000000    -3.180000000    -5.168000000
C     0.376000000    -1.935000000    -5.114000000
C     0.708000000    -0.953000000    -6.044000000
H     1.527000000    -1.130000000    -6.737000000
C    -0.006000000     0.221000000    -6.037000000
O     0.414000000     1.181000000    -6.901000000
C     0.370000000     2.522000000    -6.542000000
C     1.243000000     3.110000000    -5.582000000
H     2.089000000     2.561000000    -5.176000000
C    -0.681000000     3.247000000    -7.076000000
H    -1.486000000     2.708000000    -7.569000000
C    -0.708000000     4.670000000    -6.873000000
H    -1.540000000     5.264000000    -7.241000000
C     0.241000000     5.259000000    -6.046000000
H     0.125000000     6.309000000    -5.789000000
C     1.249000000     4.473000000    -5.382000000
O     2.102000000     5.093000000    -4.516000000
C     2.034000000     5.031000000    -3.081000000
C     3.136000000     5.395000000    -2.325000000
H     4.054000000     5.637000000    -2.854000000
C     3.004000000     5.472000000    -0.925000000
O     4.140000000     5.770000000    -0.234000000
C     4.360000000     5.443000000     1.038000000
C     4.085000000     6.403000000     2.049000000
H     3.934000000     7.410000000     1.669000000
C     4.091000000     6.008000000     3.363000000
H     3.812000000     6.634000000     4.206000000
C     4.389000000     4.688000000     3.705000000
H     4.542000000     4.412000000     4.744000000
C     4.788000000     3.800000000     2.729000000
C     4.737000000     4.178000000     1.412000000
H     5.102000000     3.454000000     0.689000000
O     7.125000000     0.658000000     1.251000000
H     7.373000000     0.552000000     0.332000000
H     6.233000000     0.313000000     1.299000000
O     4.814000000    -2.588000000    -6.057000000
H     4.094000000    -3.043000000    -5.621000000
H     4.884000000    -1.753000000    -5.594000000
O     4.958000000    -3.408000000    -0.388000000
H     4.988000000    -2.503000000    -0.077000000
H     4.152000000    -3.458000000    -0.902000000
O     7.481000000     4.481000000    -1.539000000
H     8.374000000     4.249000000    -1.794000000
H     6.982000000     3.672000000    -1.654000000
O     8.920000000     2.960000000    -3.972000000
H     9.723000000     3.395000000    -3.686000000
H     8.246000000     3.638000000    -3.912000000
O     5.997000000    -4.069000000    -3.189000000
H     5.654000000    -4.167000000    -2.301000000
H     6.831000000    -3.613000000    -3.075000000
O     5.100000000    -0.309000000    -4.511000000
H     4.916000000     0.541000000    -4.910000000
H     4.942000000    -0.174000000    -3.576000000
O     9.830000000     0.692000000    -2.856000000
H     9.496000000     1.589000000    -2.837000000
H     9.209000000     0.194000000    -2.325000000
O     7.373000000    -4.910000000     0.182000000
H     6.693000000    -4.250000000     0.319000000
H     8.192000000    -4.454000000     0.374000000
O     7.557000000    -2.338000000     0.935000000
H     7.247000000    -2.821000000     1.701000000
H     6.969000000    -1.585000000     0.872000000
O     8.862000000     1.984000000     2.537000000
H     8.203000000     1.519000000     2.021000000
H     8.364000000     2.401000000     3.240000000
O     7.839000000    -0.539000000    -1.184000000
H     8.045000000    -1.276000000    -0.609000000
H     6.889000000    -0.443000000    -1.120000000
O     9.667000000    -3.306000000    -0.174000000
H     8.901000000    -2.801000000     0.098000000
H    10.275000000    -3.235000000     0.563000000
O     6.337000000     2.002000000    -2.307000000
H     5.934000000     1.140000000    -2.204000000
H     6.005000000     2.324000000    -3.144000000
O    10.121000000     3.509000000    -1.231000000
H    10.577000000     3.952000000    -0.515000000
H    10.108000000     2.588000000    -0.972000000
O     4.592000000     2.266000000    -6.037000000
H     5.078000000     3.087000000    -6.119000000
H     3.970000000     2.282000000    -6.764000000
O     3.538000000    -2.389000000    -2.855000000
H     4.418000000    -2.712000000    -3.047000000
H     3.650000000    -1.446000000    -2.734000000
O     7.624000000    -3.867000000     3.037000000
H     8.439000000    -3.762000000     3.528000000
H     7.499000000    -4.814000000     2.982000000
O     7.521000000    -1.833000000    -3.736000000
H     6.695000000    -1.542000000    -4.122000000
H     7.642000000    -1.266000000    -2.973000000
