201
-1255.37343
C     1.331000000    -4.467000000    -1.966000000
H     0.414000000    -4.315000000    -2.529000000
C     1.219000000    -4.495000000    -0.586000000
C     2.384000000    -4.566000000     0.169000000
H     2.297000000    -4.297000000     1.219000000
C    -0.102000000    -4.302000000     0.129000000
O    -1.239000000    -4.849000000    -0.616000000
H    -0.167000000    -3.205000000     0.064000000
O    -0.081000000    -4.802000000     1.472000000
C    -0.678000000    -3.922000000     2.467000000
C     0.163000000    -3.170000000     3.196000000
H     1.246000000    -3.183000000     3.098000000
C    -0.336000000    -2.248000000     4.115000000
O     0.653000000    -1.578000000     4.681000000
C    -1.741000000    -1.980000000     4.174000000
C    -2.318000000    -0.830000000     5.092000000
H    -3.379000000    -1.010000000     5.278000000
C    -2.108000000     0.554000000     4.526000000
C    -3.210000000     1.077000000     3.827000000
H    -4.109000000     0.467000000     3.846000000
H    -1.671000000    -0.963000000     5.962000000
C    -2.579000000    -2.756000000     3.343000000
H    -3.625000000    -2.461000000     3.358000000
C    -2.042000000    -3.696000000     2.511000000
C    -3.036000000    -4.375000000     1.654000000
H    -3.996000000    -4.547000000     2.146000000
H    -2.612000000    -5.378000000     1.585000000
C    -3.169000000    -3.671000000     0.317000000
C    -4.168000000    -2.637000000     0.176000000
H    -4.782000000    -2.334000000     1.020000000
C    -2.254000000    -3.967000000    -0.721000000
C    -2.500000000    -3.223000000    -1.915000000
H    -1.692000000    -3.307000000    -2.637000000
C    -3.509000000    -2.247000000    -2.082000000
O    -3.450000000    -1.457000000    -3.232000000
C    -2.895000000    -0.099000000    -3.141000000
C    -2.176000000     0.248000000    -4.458000000
C    -1.987000000     1.560000000    -4.844000000
H    -2.580000000     2.350000000    -4.391000000
C    -1.360000000    -0.778000000    -4.976000000
H    -1.421000000    -1.766000000    -4.526000000
O    -3.980000000     0.791000000    -3.059000000
H    -2.380000000     0.022000000    -2.177000000
C    -4.442000000    -2.036000000    -1.057000000
C    -5.450000000    -0.880000000    -1.142000000
H    -6.338000000    -0.986000000    -0.515000000
H    -5.867000000    -0.745000000    -2.142000000
C    -4.811000000     0.549000000    -0.866000000
C    -4.969000000     0.945000000     0.495000000
H    -5.386000000     0.190000000     1.157000000
C    -4.126000000     1.299000000    -1.851000000
C    -3.545000000     2.510000000    -1.453000000
H    -3.115000000     3.184000000    -2.190000000
C    -3.571000000     2.860000000    -0.053000000
O    -2.812000000     3.990000000     0.194000000
C    -1.543000000     3.723000000     0.835000000
C    -0.450000000     4.628000000     0.252000000
C    -0.431000000     4.968000000    -1.115000000
H    -1.271000000     4.627000000    -1.715000000
C     0.698000000     5.100000000     0.972000000
H     0.877000000     4.773000000     1.993000000
O    -1.709000000     3.960000000     2.250000000
H    -1.295000000     2.683000000     0.578000000
C    -4.326000000     2.170000000     0.915000000
C    -4.388000000     2.726000000     2.301000000
H    -5.290000000     2.421000000     2.835000000
H    -4.441000000     3.809000000     2.173000000
C    -3.171000000     2.257000000     3.092000000
C    -1.898000000     2.933000000     3.091000000
C    -0.815000000     2.424000000     3.845000000
H     0.085000000     3.020000000     3.971000000
C    -0.905000000     1.275000000     4.568000000
O     0.286000000     0.747000000     5.025000000
C     0.974000000    -0.257000000     4.224000000
H     0.515000000    -0.249000000     3.225000000
C     2.481000000    -0.066000000     3.999000000
C     3.308000000    -1.176000000     4.115000000
H     2.790000000    -2.108000000     4.325000000
C     3.066000000     1.152000000     3.753000000
H     2.377000000     1.960000000     3.522000000
C     4.467000000     1.310000000     3.620000000
O     5.081000000     2.522000000     3.328000000
C     5.246000000     0.179000000     3.677000000
H     6.301000000     0.276000000     3.432000000
C     4.679000000    -1.061000000     3.946000000
O     5.433000000    -2.189000000     4.188000000
C     5.336000000    -3.408000000     3.577000000
C     4.788000000    -3.431000000     2.312000000
H     4.353000000    -2.543000000     1.861000000
C     5.873000000    -4.503000000     4.229000000
H     6.326000000    -4.389000000     5.210000000
C     6.162000000    -5.645000000     3.516000000
H     6.737000000    -6.445000000     3.976000000
C     5.650000000    -5.705000000     2.237000000
H     5.904000000    -6.562000000     1.619000000
C     5.005000000    -4.642000000     1.616000000
O     4.837000000    -4.725000000     0.255000000
C     3.635000000    -4.734000000    -0.428000000
C     3.750000000    -4.741000000    -1.812000000
H     4.711000000    -4.700000000    -2.319000000
C     2.577000000    -4.699000000    -2.607000000
O     2.798000000    -4.584000000    -3.962000000
C     1.805000000    -4.265000000    -4.865000000
C     1.560000000    -2.944000000    -5.280000000
H     2.189000000    -2.182000000    -4.827000000
C     1.034000000    -5.282000000    -5.399000000
H     1.129000000    -6.341000000    -5.170000000
C     0.042000000    -5.023000000    -6.377000000
H    -0.541000000    -5.836000000    -6.803000000
C    -0.234000000    -3.674000000    -6.713000000
H    -0.873000000    -3.355000000    -7.532000000
C     0.478000000    -2.703000000    -6.122000000
O     0.250000000    -1.429000000    -6.614000000
C    -0.460000000    -0.432000000    -5.997000000
C    -0.451000000     0.882000000    -6.516000000
H     0.207000000     1.116000000    -7.349000000
C    -1.139000000     1.914000000    -5.883000000
O    -1.102000000     3.167000000    -6.435000000
C    -1.317000000     4.247000000    -5.655000000
C    -0.442000000     4.517000000    -4.597000000
H     0.388000000     3.858000000    -4.355000000
C    -2.254000000     5.174000000    -6.036000000
H    -2.869000000     5.030000000    -6.921000000
C    -2.455000000     6.255000000    -5.316000000
H    -3.257000000     6.966000000    -5.498000000
C    -1.588000000     6.519000000    -4.213000000
H    -1.684000000     7.470000000    -3.696000000
C    -0.481000000     5.724000000    -3.952000000
O     0.507000000     6.079000000    -3.053000000
C     0.559000000     5.728000000    -1.702000000
C     1.647000000     6.158000000    -0.958000000
H     2.453000000     6.734000000    -1.404000000
C     1.745000000     5.836000000     0.408000000
O     2.875000000     6.215000000     1.162000000
C     3.242000000     5.575000000     2.329000000
C     2.778000000     6.045000000     3.558000000
H     2.325000000     7.033000000     3.586000000
C     3.144000000     5.365000000     4.684000000
H     2.801000000     5.736000000     5.646000000
C     3.847000000     4.176000000     4.656000000
H     4.137000000     3.659000000     5.567000000
C     4.332000000     3.650000000     3.416000000
C     4.051000000     4.403000000     2.266000000
H     4.525000000     4.100000000     1.336000000
O     4.782000000    -1.954000000    -8.028000000
H     4.248000000    -1.236000000    -7.690000000
H     4.451000000    -2.103000000    -8.914000000
O     4.372000000    -1.668000000    -3.316000000
H     4.593000000    -2.410000000    -3.879000000
H     3.841000000    -1.097000000    -3.871000000
O     7.858000000     4.209000000    -4.121000000
H     7.745000000     3.524000000    -4.780000000
H     8.369000000     3.792000000    -3.427000000
O     3.299000000     4.695000000    -3.485000000
H     3.377000000     3.744000000    -3.405000000
H     3.141000000     4.998000000    -2.591000000
O     8.440000000     0.367000000    -6.637000000
H     9.062000000     0.934000000    -7.092000000
H     7.821000000     0.972000000    -6.226000000
O     5.286000000     2.715000000    -8.264000000
H     6.041000000     2.924000000    -7.714000000
H     5.625000000     2.750000000    -9.159000000
O     6.858000000    -1.205000000    -2.196000000
H     5.953000000    -1.217000000    -2.509000000
H     6.801000000    -1.506000000    -1.289000000
O     3.270000000     5.574000000    -6.366000000
H     3.332000000     5.204000000    -5.486000000
H     3.098000000     6.504000000    -6.223000000
O     7.743000000     1.300000000    -3.361000000
H     7.123000000     1.266000000    -4.089000000
H     7.678000000     0.438000000    -2.950000000
O     5.611000000     6.060000000    -3.592000000
H     6.340000000     5.442000000    -3.537000000
H     4.838000000     5.508000000    -3.714000000
O     3.486000000    -1.594000000    -0.516000000
H     2.656000000    -1.117000000    -0.531000000
H     3.667000000    -1.788000000    -1.436000000
O     5.162000000    -3.025000000    -5.565000000
H     5.954000000    -3.479000000    -5.853000000
H     4.927000000    -2.462000000    -6.302000000
O     5.727000000    -0.412000000     0.686000000
H     5.446000000     0.494000000     0.563000000
H     4.963000000    -0.935000000     0.440000000
O     3.061000000    -0.301000000    -6.967000000
H     2.174000000    -0.645000000    -7.071000000
H     3.071000000     0.071000000    -6.085000000
O     5.730000000     4.822000000    -0.718000000
H     5.603000000     3.983000000    -1.161000000
H     5.961000000     4.587000000     0.180000000
O     5.820000000     1.190000000    -5.200000000
H     5.660000000     1.947000000    -5.763000000
H     4.973000000     1.013000000    -4.790000000
O     2.165000000     1.238000000    -9.094000000
H     2.342000000     0.672000000    -8.343000000
H     2.117000000     2.120000000    -8.723000000
O     5.358000000     2.094000000    -1.302000000
H     6.156000000     1.661000000    -1.607000000
H     4.701000000     1.879000000    -1.965000000
O     2.932000000     3.874000000    -8.550000000
H     3.810000000     3.491000000    -8.534000000
H     2.997000000     4.644000000    -7.985000000
