201
-1216.00431
C    -4.924000000    -0.841000000    -1.926000000
H    -4.360000000    -0.508000000    -2.794000000
C    -4.777000000    -0.137000000    -0.721000000
C    -5.366000000    -0.726000000     0.472000000
H    -5.247000000    -0.324000000     1.475000000
C    -4.004000000     1.218000000    -0.643000000
O    -4.109000000     1.962000000    -1.778000000
H    -2.947000000     0.971000000    -0.466000000
O    -4.443000000     2.019000000     0.526000000
C    -3.428000000     2.475000000     1.356000000
C    -3.038000000     1.922000000     2.517000000
H    -3.556000000     1.018000000     2.826000000
C    -2.043000000     2.409000000     3.248000000
O    -1.609000000     1.620000000     4.280000000
C    -1.391000000     3.615000000     2.862000000
C    -0.300000000     4.227000000     3.716000000
H    -0.154000000     5.296000000     3.550000000
C     0.930000000     3.434000000     3.266000000
C     1.695000000     4.046000000     2.260000000
H     1.370000000     5.018000000     1.899000000
H    -0.610000000     4.036000000     4.746000000
C    -1.898000000     4.252000000     1.725000000
H    -1.299000000     5.093000000     1.387000000
C    -2.872000000     3.639000000     0.937000000
C    -3.227000000     4.256000000    -0.417000000
H    -2.917000000     5.303000000    -0.430000000
H    -4.280000000     4.344000000    -0.691000000
C    -2.516000000     3.665000000    -1.590000000
C    -1.306000000     4.237000000    -2.061000000
H    -0.962000000     5.133000000    -1.551000000
C    -3.037000000     2.568000000    -2.272000000
C    -2.305000000     1.973000000    -3.252000000
H    -2.705000000     1.041000000    -3.642000000
C    -1.099000000     2.497000000    -3.727000000
O    -0.310000000     1.848000000    -4.606000000
C     0.827000000     1.111000000    -4.162000000
C     0.884000000    -0.325000000    -4.739000000
C     2.109000000    -1.014000000    -4.859000000
H     3.008000000    -0.456000000    -4.613000000
C    -0.311000000    -1.030000000    -4.942000000
H    -1.256000000    -0.548000000    -4.705000000
O     2.055000000     1.820000000    -4.297000000
H     0.714000000     0.955000000    -3.079000000
C    -0.568000000     3.627000000    -3.045000000
C     0.784000000     4.222000000    -3.493000000
H     0.745000000     5.292000000    -3.276000000
H     0.975000000     4.148000000    -4.565000000
C     1.967000000     3.637000000    -2.723000000
C     2.437000000     4.257000000    -1.547000000
H     2.011000000     5.173000000    -1.147000000
C     2.529000000     2.462000000    -3.191000000
C     3.467000000     1.823000000    -2.499000000
H     3.856000000     0.869000000    -2.848000000
C     3.884000000     2.293000000    -1.259000000
O     4.795000000     1.675000000    -0.475000000
C     4.159000000     0.923000000     0.580000000
C     4.708000000    -0.437000000     0.673000000
C     5.026000000    -1.211000000    -0.467000000
H     4.833000000    -0.721000000    -1.418000000
C     4.803000000    -1.041000000     1.938000000
H     4.472000000    -0.499000000     2.820000000
O     4.386000000     1.616000000     1.848000000
H     3.076000000     0.820000000     0.414000000
C     3.364000000     3.535000000    -0.795000000
C     3.703000000     4.113000000     0.540000000
H     3.628000000     5.202000000     0.556000000
H     4.774000000     3.916000000     0.620000000
C     2.877000000     3.473000000     1.707000000
C     3.337000000     2.301000000     2.375000000
C     2.623000000     1.723000000     3.353000000
H     2.944000000     0.719000000     3.619000000
C     1.405000000     2.281000000     3.836000000
O     0.635000000     1.438000000     4.700000000
C    -0.447000000     0.846000000     3.979000000
H    -0.363000000     0.870000000     2.882000000
C    -0.654000000    -0.529000000     4.462000000
C    -1.977000000    -0.978000000     4.755000000
H    -2.803000000    -0.286000000     4.613000000
C     0.393000000    -1.463000000     4.517000000
H     1.416000000    -1.117000000     4.392000000
C     0.104000000    -2.789000000     4.820000000
O     1.085000000    -3.664000000     4.867000000
C    -1.230000000    -3.204000000     5.106000000
H    -1.525000000    -4.211000000     5.390000000
C    -2.302000000    -2.299000000     5.068000000
O    -3.557000000    -2.764000000     5.353000000
C    -4.678000000    -2.326000000     4.692000000
C    -4.909000000    -2.463000000     3.341000000
H    -4.136000000    -3.010000000     2.807000000
C    -5.714000000    -1.781000000     5.441000000
H    -5.628000000    -1.772000000     6.525000000
C    -6.969000000    -1.475000000     4.929000000
H    -7.783000000    -1.149000000     5.572000000
C    -7.171000000    -1.729000000     3.551000000
H    -8.198000000    -1.744000000     3.195000000
C    -6.139000000    -2.228000000     2.761000000
O    -6.389000000    -2.679000000     1.463000000
C    -6.040000000    -1.953000000     0.356000000
C    -6.051000000    -2.580000000    -0.846000000
H    -6.464000000    -3.585000000    -0.892000000
C    -5.565000000    -2.073000000    -1.975000000
O    -5.594000000    -2.689000000    -3.178000000
C    -4.866000000    -2.377000000    -4.331000000
C    -3.534000000    -2.801000000    -4.365000000
H    -3.129000000    -3.473000000    -3.612000000
C    -5.325000000    -1.561000000    -5.356000000
H    -6.314000000    -1.122000000    -5.245000000
C    -4.545000000    -1.181000000    -6.469000000
H    -4.914000000    -0.592000000    -7.305000000
C    -3.282000000    -1.746000000    -6.570000000
H    -2.693000000    -1.647000000    -7.478000000
C    -2.741000000    -2.472000000    -5.482000000
O    -1.479000000    -3.074000000    -5.546000000
C    -0.304000000    -2.366000000    -5.429000000
C     0.912000000    -2.952000000    -5.587000000
H     0.957000000    -4.003000000    -5.861000000
C     2.125000000    -2.352000000    -5.304000000
O     3.340000000    -3.076000000    -5.480000000
C     4.429000000    -2.697000000    -4.773000000
C     4.540000000    -3.066000000    -3.511000000
H     3.701000000    -3.463000000    -2.945000000
C     5.494000000    -1.990000000    -5.366000000
H     5.423000000    -1.721000000    -6.416000000
C     6.611000000    -1.726000000    -4.603000000
H     7.466000000    -1.263000000    -5.089000000
C     6.715000000    -2.161000000    -3.247000000
H     7.522000000    -1.942000000    -2.552000000
C     5.641000000    -2.817000000    -2.757000000
O     5.695000000    -3.286000000    -1.461000000
C     5.441000000    -2.532000000    -0.372000000
C     5.641000000    -3.043000000     0.898000000
H     6.126000000    -4.008000000     1.023000000
C     5.322000000    -2.293000000     2.047000000
O     5.536000000    -2.860000000     3.324000000
C     4.632000000    -2.906000000     4.372000000
C     4.952000000    -2.205000000     5.542000000
H     5.953000000    -1.809000000     5.691000000
C     3.944000000    -2.092000000     6.483000000
H     4.056000000    -1.574000000     7.432000000
C     2.728000000    -2.626000000     6.284000000
H     2.005000000    -2.510000000     7.087000000
C     2.373000000    -3.289000000     5.153000000
C     3.352000000    -3.427000000     4.160000000
H     3.119000000    -3.816000000     3.172000000
O    -0.359000000    -5.934000000    -2.468000000
H    -0.404000000    -5.878000000    -3.422000000
H    -1.273000000    -5.928000000    -2.184000000
O    -6.753000000    -6.577000000     2.202000000
H    -5.894000000    -6.357000000     1.843000000
H    -7.284000000    -6.795000000     1.436000000
O    -1.283000000   -10.483000000     0.869000000
H    -0.820000000    -9.667000000     0.679000000
H    -0.918000000   -11.115000000     0.251000000
O    -3.291000000    -8.937000000     3.213000000
H    -3.463000000    -9.184000000     2.304000000
H    -3.117000000    -7.997000000     3.177000000
O     2.240000000    -8.375000000    -1.402000000
H     1.819000000    -8.508000000    -0.552000000
H     1.996000000    -7.484000000    -1.653000000
O    -1.438000000    -6.783000000     4.097000000
H    -1.543000000    -6.185000000     3.357000000
H    -0.712000000    -7.353000000     3.842000000
O     1.574000000    -9.125000000     1.136000000
H     1.904000000    -8.641000000     1.892000000
H     0.830000000    -8.609000000     0.827000000
O    -2.434000000    -6.821000000    -4.628000000
H    -2.411000000    -6.802000000    -3.671000000
H    -1.515000000    -6.896000000    -4.888000000
O     2.091000000    -5.308000000    -1.454000000
H     2.139000000    -4.353000000    -1.425000000
H     1.198000000    -5.495000000    -1.744000000
O    -5.812000000    -5.922000000    -2.602000000
H    -5.684000000    -6.630000000    -3.233000000
H    -6.221000000    -5.221000000    -3.109000000
O    -3.122000000    -6.439000000    -2.140000000
H    -4.054000000    -6.462000000    -2.358000000
H    -3.093000000    -6.096000000    -1.247000000
O    -0.737000000    -7.800000000     0.894000000
H    -0.671000000    -6.850000000     0.987000000
H    -1.629000000    -7.949000000     0.579000000
O    -7.571000000    -6.602000000    -0.668000000
H    -6.738000000    -6.334000000    -1.055000000
H    -7.683000000    -7.511000000    -0.946000000
O     1.541000000    -5.765000000     2.124000000
H     1.589000000    -6.411000000     2.829000000
H     0.613000000    -5.535000000     2.073000000
O    -4.180000000    -6.434000000     1.068000000
H    -3.959000000    -7.239000000     0.599000000
H    -3.531000000    -5.797000000     0.768000000
O     1.870000000    -2.539000000    -1.471000000
H     1.436000000    -1.984000000    -2.119000000
H     1.507000000    -2.256000000    -0.632000000
O    -3.330000000    -6.443000000     6.271000000
H    -2.746000000    -6.341000000     5.519000000
H    -4.123000000    -5.967000000     6.024000000
O     3.726000000    -6.060000000     0.453000000
H     3.098000000    -6.054000000     1.175000000
H     3.201000000    -5.861000000    -0.323000000
O    -3.568000000    -9.191000000     0.317000000
H    -2.899000000    -9.862000000     0.453000000
H    -4.372000000    -9.684000000     0.156000000
