201
-1270.15025
C     2.109000000    -3.439000000    -2.664000000
H     1.132000000    -3.772000000    -3.004000000
C     2.458000000    -3.620000000    -1.331000000
C     3.791000000    -3.431000000    -0.907000000
H     4.087000000    -3.797000000     0.073000000
C     1.329000000    -3.971000000    -0.351000000
O     0.266000000    -4.826000000    -0.902000000
H     0.870000000    -3.037000000     0.007000000
O     1.880000000    -4.682000000     0.813000000
C     1.579000000    -4.154000000     2.050000000
C     2.516000000    -3.276000000     2.618000000
H     3.538000000    -3.036000000     2.333000000
C     2.010000000    -2.546000000     3.727000000
O     2.762000000    -1.491000000     4.100000000
C     0.759000000    -2.786000000     4.316000000
C     0.177000000    -1.862000000     5.387000000
H    -0.587000000    -2.516000000     5.813000000
C    -0.419000000    -0.553000000     4.767000000
C    -1.841000000    -0.417000000     4.723000000
H    -2.401000000    -1.270000000     5.097000000
H     0.934000000    -1.527000000     6.099000000
C    -0.077000000    -3.769000000     3.727000000
H    -1.081000000    -3.876000000     4.129000000
C     0.319000000    -4.429000000     2.570000000
C    -0.712000000    -5.295000000     1.770000000
H    -1.340000000    -5.796000000     2.509000000
H    -0.265000000    -6.166000000     1.286000000
C    -1.552000000    -4.631000000     0.708000000
C    -2.826000000    -4.100000000     0.928000000
H    -3.218000000    -4.163000000     1.940000000
C    -1.002000000    -4.372000000    -0.573000000
C    -1.779000000    -3.758000000    -1.562000000
H    -1.418000000    -3.632000000    -2.579000000
C    -3.005000000    -3.120000000    -1.263000000
O    -3.561000000    -2.349000000    -2.263000000
C    -3.736000000    -0.921000000    -2.078000000
C    -3.409000000    -0.088000000    -3.335000000
C    -4.206000000     1.000000000    -3.599000000
H    -5.103000000     1.151000000    -3.002000000
C    -2.311000000    -0.366000000    -4.060000000
H    -1.584000000    -1.081000000    -3.684000000
O    -5.020000000    -0.652000000    -1.433000000
H    -2.933000000    -0.670000000    -1.369000000
C    -3.553000000    -3.370000000    -0.009000000
C    -4.931000000    -2.826000000     0.474000000
H    -5.319000000    -3.277000000     1.390000000
H    -5.632000000    -2.941000000    -0.355000000
C    -4.820000000    -1.344000000     0.872000000
C    -4.557000000    -0.993000000     2.216000000
H    -4.369000000    -1.854000000     2.852000000
C    -5.010000000    -0.310000000    -0.115000000
C    -4.868000000     1.047000000     0.236000000
H    -4.940000000     1.818000000    -0.527000000
C    -4.491000000     1.304000000     1.518000000
O    -3.903000000     2.545000000     1.746000000
C    -2.495000000     2.632000000     1.660000000
C    -2.024000000     3.756000000     0.708000000
C    -2.867000000     4.464000000    -0.136000000
H    -3.947000000     4.342000000    -0.140000000
C    -0.649000000     3.980000000     0.733000000
H     0.098000000     3.345000000     1.201000000
O    -1.982000000     2.879000000     3.006000000
H    -2.067000000     1.699000000     1.263000000
C    -4.420000000     0.346000000     2.508000000
C    -3.939000000     0.758000000     3.941000000
H    -4.480000000     0.101000000     4.625000000
H    -4.316000000     1.775000000     4.062000000
C    -2.460000000     0.656000000     4.100000000
C    -1.593000000     1.726000000     3.707000000
C    -0.198000000     1.677000000     3.917000000
H     0.434000000     2.434000000     3.460000000
C     0.371000000     0.579000000     4.540000000
O     1.783000000     0.543000000     4.619000000
C     2.478000000    -0.219000000     3.567000000
H     1.845000000    -0.365000000     2.679000000
C     3.746000000     0.577000000     3.096000000
C     4.897000000    -0.190000000     2.617000000
H     4.874000000    -1.271000000     2.729000000
C     3.726000000     1.945000000     2.977000000
H     2.869000000     2.585000000     3.169000000
C     4.907000000     2.538000000     2.558000000
O     4.962000000     3.958000000     2.554000000
C     6.067000000     1.804000000     2.250000000
H     6.988000000     2.347000000     2.053000000
C     6.048000000     0.416000000     2.276000000
O     7.182000000    -0.328000000     1.938000000
C     7.141000000    -1.557000000     1.480000000
C     6.325000000    -1.834000000     0.366000000
H     5.559000000    -1.162000000    -0.012000000
C     8.238000000    -2.377000000     1.801000000
H     8.951000000    -2.027000000     2.543000000
C     8.418000000    -3.641000000     1.260000000
H     9.223000000    -4.294000000     1.587000000
C     7.585000000    -3.924000000     0.170000000
H     7.725000000    -4.853000000    -0.377000000
C     6.600000000    -3.015000000    -0.288000000
O     6.033000000    -3.134000000    -1.545000000
C     4.737000000    -3.093000000    -1.884000000
C     4.372000000    -2.917000000    -3.189000000
H     5.169000000    -2.647000000    -3.878000000
C     3.044000000    -3.051000000    -3.664000000
O     2.667000000    -2.812000000    -4.945000000
C     1.413000000    -2.472000000    -5.496000000
C     0.874000000    -1.196000000    -5.470000000
H     1.306000000    -0.404000000    -4.864000000
C     0.789000000    -3.488000000    -6.211000000
H     1.290000000    -4.451000000    -6.249000000
C    -0.438000000    -3.292000000    -6.903000000
H    -0.883000000    -4.090000000    -7.491000000
C    -1.085000000    -2.091000000    -6.700000000
H    -2.089000000    -1.940000000    -7.087000000
C    -0.427000000    -1.059000000    -6.056000000
O    -0.960000000     0.219000000    -5.989000000
C    -2.013000000     0.462000000    -5.121000000
C    -2.803000000     1.604000000    -5.376000000
H    -2.379000000     2.282000000    -6.113000000
C    -3.929000000     1.832000000    -4.633000000
O    -4.810000000     2.809000000    -4.987000000
C    -4.983000000     3.782000000    -4.100000000
C    -3.964000000     4.364000000    -3.298000000
H    -2.978000000     3.947000000    -3.482000000
C    -6.265000000     4.408000000    -3.934000000
H    -7.117000000     3.992000000    -4.465000000
C    -6.469000000     5.496000000    -3.093000000
H    -7.459000000     5.940000000    -3.022000000
C    -5.446000000     6.143000000    -2.504000000
H    -5.637000000     7.018000000    -1.888000000
C    -4.159000000     5.511000000    -2.576000000
O    -3.096000000     6.086000000    -1.940000000
C    -2.308000000     5.372000000    -1.049000000
C    -0.935000000     5.551000000    -1.034000000
H    -0.387000000     6.231000000    -1.682000000
C    -0.142000000     4.908000000    -0.135000000
O     1.215000000     4.937000000    -0.353000000
C     2.044000000     5.242000000     0.742000000
C     1.780000000     6.376000000     1.512000000
H     1.093000000     7.145000000     1.167000000
C     2.509000000     6.660000000     2.644000000
H     2.282000000     7.574000000     3.187000000
C     3.585000000     5.831000000     3.009000000
H     4.203000000     6.102000000     3.861000000
C     3.868000000     4.742000000     2.182000000
C     3.078000000     4.429000000     1.056000000
H     3.400000000     3.570000000     0.473000000
O     7.270000000    -1.591000000    -4.267000000
H     7.795000000    -2.375000000    -4.102000000
H     7.078000000    -1.624000000    -5.204000000
O     4.268000000     4.088000000    -7.153000000
H     3.465000000     3.613000000    -6.937000000
H     4.844000000     3.425000000    -7.533000000
O     2.066000000    -1.627000000    -8.751000000
H     2.144000000    -0.827000000    -9.272000000
H     1.275000000    -1.496000000    -8.228000000
O     1.986000000     2.457000000    -6.455000000
H     1.847000000     2.169000000    -5.553000000
H     1.246000000     3.036000000    -6.639000000
O     5.046000000    -3.686000000    -6.325000000
H     5.032000000    -3.319000000    -7.209000000
H     4.947000000    -2.928000000    -5.749000000
O     5.871000000    -0.148000000    -2.334000000
H     6.239000000    -0.646000000    -3.063000000
H     4.981000000     0.064000000    -2.615000000
O     6.191000000     2.368000000    -0.832000000
H     6.131000000     1.494000000    -1.219000000
H     5.435000000     2.837000000    -1.183000000
O     4.571000000     1.007000000    -6.258000000
H     4.325000000     1.005000000    -5.333000000
H     3.827000000     1.413000000    -6.703000000
O     8.198000000     2.991000000    -3.014000000
H     7.315000000     2.837000000    -3.351000000
H     8.163000000     2.690000000    -2.106000000
O     6.264000000    -0.950000000    -6.881000000
H     5.693000000    -0.183000000    -6.834000000
H     5.975000000    -1.415000000    -7.667000000
O     5.684000000     2.689000000    -4.248000000
H     4.892000000     2.366000000    -3.819000000
H     5.871000000     2.039000000    -4.925000000
O     3.813000000     7.248000000    -4.780000000
H     3.433000000     6.451000000    -5.150000000
H     4.703000000     6.996000000    -4.532000000
O     1.644000000     4.919000000    -3.265000000
H     1.186000000     4.968000000    -2.425000000
H     1.630000000     3.989000000    -3.491000000
O     6.093000000     5.709000000    -4.285000000
H     5.924000000     4.823000000    -4.606000000
H     6.208000000     5.604000000    -3.341000000
O     0.134000000     4.549000000    -5.642000000
H     0.507000000     5.086000000    -6.342000000
H     0.509000000     4.910000000    -4.838000000
O     9.079000000     0.439000000    -3.411000000
H     8.935000000     1.364000000    -3.208000000
H     8.206000000     0.049000000    -3.385000000
O     6.006000000     5.864000000    -1.580000000
H     5.688000000     6.558000000    -1.002000000
H     6.590000000     5.343000000    -1.029000000
O     1.744000000     7.584000000    -2.916000000
H     2.449000000     7.860000000    -3.502000000
H     1.683000000     6.637000000    -3.043000000
O     4.193000000     3.806000000    -2.129000000
H     3.564000000     3.624000000    -2.828000000
H     4.506000000     4.692000000    -2.314000000
