201
-1228.35001
C     0.730000000    -4.264000000    -3.291000000
H    -0.328000000    -4.449000000    -3.458000000
C     1.200000000    -3.836000000    -2.022000000
C     2.486000000    -3.412000000    -1.793000000
H     2.851000000    -3.088000000    -0.821000000
C     0.219000000    -3.865000000    -0.785000000
O    -0.979000000    -4.634000000    -1.144000000
H    -0.016000000    -2.829000000    -0.501000000
O     0.822000000    -4.548000000     0.372000000
C     0.607000000    -4.095000000     1.680000000
C     1.619000000    -3.368000000     2.320000000
H     2.573000000    -3.345000000     1.800000000
C     1.425000000    -2.659000000     3.471000000
O     2.428000000    -1.944000000     4.096000000
C     0.139000000    -2.647000000     4.052000000
C    -0.121000000    -1.935000000     5.381000000
H    -1.037000000    -2.192000000     5.917000000
C    -0.406000000    -0.446000000     5.074000000
C    -1.678000000    -0.113000000     4.745000000
H    -2.391000000    -0.931000000     4.684000000
H     0.633000000    -1.915000000     6.171000000
C    -0.888000000    -3.388000000     3.467000000
H    -1.914000000    -3.398000000     3.827000000
C    -0.632000000    -4.199000000     2.337000000
C    -1.757000000    -4.954000000     1.706000000
H    -2.443000000    -5.320000000     2.472000000
H    -1.234000000    -5.860000000     1.393000000
C    -2.545000000    -4.183000000     0.612000000
C    -3.601000000    -3.472000000     1.049000000
H    -3.892000000    -3.555000000     2.093000000
C    -2.184000000    -4.145000000    -0.729000000
C    -2.824000000    -3.368000000    -1.559000000
H    -2.509000000    -3.244000000    -2.592000000
C    -3.867000000    -2.553000000    -1.093000000
O    -4.235000000    -1.630000000    -2.019000000
C    -3.717000000    -0.345000000    -1.862000000
C    -3.448000000     0.344000000    -3.236000000
C    -3.829000000     1.632000000    -3.504000000
H    -4.451000000     2.187000000    -2.806000000
C    -2.731000000    -0.350000000    -4.153000000
H    -2.358000000    -1.319000000    -3.832000000
O    -4.723000000     0.370000000    -1.119000000
H    -2.805000000    -0.413000000    -1.252000000
C    -4.244000000    -2.550000000     0.265000000
C    -5.286000000    -1.571000000     0.855000000
H    -5.819000000    -1.933000000     1.736000000
H    -6.057000000    -1.288000000     0.135000000
C    -4.650000000    -0.188000000     1.191000000
C    -4.427000000     0.142000000     2.492000000
H    -4.611000000    -0.638000000     3.227000000
C    -4.306000000     0.639000000     0.141000000
C    -3.869000000     1.941000000     0.379000000
H    -3.798000000     2.681000000    -0.414000000
C    -3.468000000     2.248000000     1.697000000
O    -2.729000000     3.384000000     1.806000000
C    -1.372000000     3.276000000     2.061000000
C    -0.627000000     4.247000000     1.205000000
C    -1.176000000     4.816000000     0.012000000
H    -2.247000000     4.690000000    -0.125000000
C     0.764000000     4.349000000     1.318000000
H     1.333000000     3.831000000     2.085000000
O    -1.110000000     3.312000000     3.501000000
H    -1.045000000     2.285000000     1.714000000
C    -3.828000000     1.377000000     2.759000000
C    -3.455000000     1.678000000     4.173000000
H    -4.158000000     1.228000000     4.878000000
H    -3.487000000     2.757000000     4.337000000
C    -2.042000000     1.206000000     4.451000000
C    -0.951000000     2.091000000     4.117000000
C     0.383000000     1.712000000     4.341000000
H     1.181000000     2.338000000     3.951000000
C     0.658000000     0.494000000     4.936000000
O     1.976000000     0.115000000     4.849000000
C     2.488000000    -0.592000000     3.721000000
H     1.877000000    -0.288000000     2.858000000
C     3.925000000    -0.173000000     3.382000000
C     4.783000000    -1.054000000     2.653000000
H     4.416000000    -2.070000000     2.538000000
C     4.343000000     1.181000000     3.546000000
H     3.691000000     1.888000000     4.054000000
C     5.563000000     1.600000000     3.058000000
O     6.017000000     2.876000000     3.348000000
C     6.411000000     0.720000000     2.318000000
H     7.408000000     1.040000000     2.026000000
C     5.972000000    -0.559000000     2.128000000
O     6.768000000    -1.240000000     1.273000000
C     6.353000000    -2.378000000     0.576000000
C     5.859000000    -2.207000000    -0.691000000
H     5.792000000    -1.301000000    -1.288000000
C     6.477000000    -3.610000000     1.196000000
H     6.935000000    -3.716000000     2.176000000
C     6.059000000    -4.773000000     0.496000000
H     6.183000000    -5.756000000     0.943000000
C     5.530000000    -4.631000000    -0.806000000
H     5.030000000    -5.483000000    -1.260000000
C     5.404000000    -3.315000000    -1.348000000
O     4.757000000    -3.096000000    -2.553000000
C     3.424000000    -3.480000000    -2.785000000
C     3.007000000    -4.007000000    -4.014000000
H     3.699000000    -4.122000000    -4.844000000
C     1.668000000    -4.250000000    -4.346000000
O     1.270000000    -4.274000000    -5.660000000
C     0.167000000    -3.605000000    -6.129000000
C    -0.143000000    -2.281000000    -5.893000000
H     0.621000000    -1.669000000    -5.422000000
C    -0.731000000    -4.337000000    -6.927000000
H    -0.547000000    -5.378000000    -7.181000000
C    -1.929000000    -3.781000000    -7.404000000
H    -2.689000000    -4.390000000    -7.888000000
C    -2.243000000    -2.487000000    -6.991000000
H    -3.058000000    -1.958000000    -7.477000000
C    -1.232000000    -1.697000000    -6.424000000
O    -1.409000000    -0.331000000    -6.250000000
C    -2.233000000     0.260000000    -5.327000000
C    -2.597000000     1.576000000    -5.602000000
H    -2.359000000     2.040000000    -6.556000000
C    -3.331000000     2.191000000    -4.638000000
O    -3.723000000     3.455000000    -4.917000000
C    -3.600000000     4.535000000    -4.025000000
C    -2.421000000     4.763000000    -3.352000000
H    -1.580000000     4.090000000    -3.497000000
C    -4.705000000     5.366000000    -3.914000000
H    -5.613000000     5.201000000    -4.489000000
C    -4.536000000     6.528000000    -3.068000000
H    -5.412000000     7.131000000    -2.840000000
C    -3.277000000     6.785000000    -2.461000000
H    -3.119000000     7.736000000    -1.959000000
C    -2.275000000     5.856000000    -2.571000000
O    -1.065000000     6.163000000    -1.972000000
C    -0.492000000     5.640000000    -0.842000000
C     0.886000000     5.730000000    -0.702000000
H     1.456000000     6.230000000    -1.481000000
C     1.531000000     5.034000000     0.385000000
O     2.870000000     5.182000000     0.579000000
C     3.615000000     5.046000000     1.722000000
C     3.275000000     5.941000000     2.794000000
H     2.319000000     6.450000000     2.701000000
C     3.989000000     5.851000000     3.957000000
H     3.683000000     6.365000000     4.865000000
C     4.942000000     4.869000000     4.107000000
H     5.303000000     4.605000000     5.098000000
C     5.293000000     4.015000000     3.082000000
C     4.625000000     4.097000000     1.853000000
H     4.870000000     3.329000000     1.124000000
O     5.781000000     2.875000000    -1.430000000
H     5.539000000     3.628000000    -1.970000000
H     5.318000000     2.138000000    -1.827000000
O    -0.061000000     4.500000000    -6.254000000
H    -0.668000000     3.943000000    -6.741000000
H     0.223000000     5.157000000    -6.889000000
O     5.015000000     0.151000000    -8.140000000
H     5.459000000     0.047000000    -7.299000000
H     5.593000000    -0.276000000    -8.771000000
O     2.841000000    -1.850000000    -7.072000000
H     3.436000000    -1.944000000    -7.816000000
H     2.447000000    -2.716000000    -6.968000000
O     1.698000000     5.249000000    -4.354000000
H     0.992000000     4.974000000    -4.939000000
H     1.732000000     4.567000000    -3.683000000
O     3.091000000     7.504000000    -3.438000000
H     2.512000000     6.838000000    -3.809000000
H     3.586000000     7.836000000    -4.187000000
O     6.527000000     2.164000000    -3.986000000
H     7.080000000     2.493000000    -3.277000000
H     5.768000000     1.786000000    -3.542000000
O     6.958000000     5.866000000    -0.888000000
H     7.260000000     4.989000000    -0.649000000
H     6.438000000     5.732000000    -1.680000000
O     6.736000000    -2.399000000    -4.345000000
H     6.148000000    -1.782000000    -4.780000000
H     6.183000000    -2.846000000    -3.703000000
O     4.584000000    -0.263000000    -5.255000000
H     4.385000000    -0.013000000    -4.353000000
H     3.792000000    -0.706000000    -5.561000000
O     8.556000000     0.986000000    -1.060000000
H     8.543000000     0.354000000    -0.341000000
H     8.866000000     0.485000000    -1.814000000
O     4.528000000     3.697000000    -8.913000000
H     4.946000000     4.484000000    -8.564000000
H     4.300000000     3.183000000    -8.138000000
O     3.687000000     2.447000000    -5.743000000
H     3.445000000     2.584000000    -4.827000000
H     4.260000000     1.680000000    -5.727000000
O     1.576000000     0.754000000    -7.640000000
H     1.731000000     1.288000000    -6.861000000
H     1.904000000    -0.114000000    -7.404000000
O     4.751000000     5.013000000    -2.873000000
H     4.112000000     4.301000000    -2.837000000
H     4.220000000     5.809000000    -2.907000000
O     7.191000000     3.299000000    -6.541000000
H     7.495000000     4.150000000    -6.226000000
H     6.706000000     2.930000000    -5.803000000
O     3.609000000     5.107000000    -6.338000000
H     3.759000000     4.163000000    -6.299000000
H     3.079000000     5.297000000    -5.564000000
O     7.852000000     0.334000000    -5.624000000
H     8.488000000     1.031000000    -5.786000000
H     7.131000000     0.770000000    -5.167000000
O     7.922000000     3.488000000     0.266000000
H     7.290000000     3.044000000    -0.300000000
H     8.551000000     3.881000000    -0.339000000
