201
-1250.87556
C     0.591000000    -4.833000000    -1.418000000
H    -0.460000000    -5.104000000    -1.354000000
C     1.297000000    -4.213000000    -0.322000000
C     2.657000000    -3.933000000    -0.424000000
H     3.183000000    -3.464000000     0.404000000
C     0.632000000    -3.777000000     0.902000000
O    -0.630000000    -4.419000000     1.042000000
H     0.642000000    -2.680000000     0.835000000
O     1.361000000    -4.078000000     2.111000000
C     1.404000000    -3.013000000     2.994000000
C     2.526000000    -2.288000000     3.105000000
H     3.392000000    -2.572000000     2.513000000
C     2.540000000    -1.114000000     3.901000000
O     3.571000000    -0.245000000     3.803000000
C     1.401000000    -0.814000000     4.664000000
C     1.418000000     0.506000000     5.440000000
H     0.917000000     0.475000000     6.410000000
C     0.910000000     1.607000000     4.612000000
C    -0.459000000     1.881000000     4.610000000
H    -1.046000000     1.319000000     5.332000000
H     2.416000000     0.628000000     5.867000000
C     0.285000000    -1.654000000     4.635000000
H    -0.577000000    -1.379000000     5.237000000
C     0.317000000    -2.712000000     3.748000000
C    -0.952000000    -3.621000000     3.853000000
H    -1.361000000    -3.710000000     4.862000000
H    -0.638000000    -4.660000000     3.737000000
C    -1.939000000    -3.243000000     2.797000000
C    -2.992000000    -2.341000000     3.040000000
H    -3.125000000    -2.037000000     4.076000000
C    -1.754000000    -3.691000000     1.454000000
C    -2.741000000    -3.373000000     0.532000000
H    -2.683000000    -3.776000000    -0.475000000
C    -3.818000000    -2.576000000     0.827000000
O    -4.442000000    -2.078000000    -0.276000000
C    -4.098000000    -0.769000000    -0.815000000
C    -4.090000000    -0.786000000    -2.339000000
C    -4.436000000     0.303000000    -3.103000000
H    -4.673000000     1.212000000    -2.556000000
C    -3.634000000    -1.930000000    -3.012000000
H    -3.329000000    -2.812000000    -2.455000000
O    -5.135000000     0.127000000    -0.321000000
H    -3.117000000    -0.391000000    -0.495000000
C    -3.942000000    -1.987000000     2.031000000
C    -5.031000000    -1.071000000     2.353000000
H    -5.022000000    -1.150000000     3.442000000
H    -6.009000000    -1.426000000     2.022000000
C    -4.596000000     0.372000000     2.002000000
C    -3.911000000     1.116000000     2.986000000
H    -3.668000000     0.612000000     3.918000000
C    -4.715000000     0.860000000     0.698000000
C    -4.142000000     2.085000000     0.408000000
H    -4.057000000     2.329000000    -0.648000000
C    -3.506000000     2.899000000     1.377000000
O    -2.755000000     3.973000000     0.958000000
C    -1.309000000     3.731000000     0.809000000
C    -0.952000000     4.380000000    -0.552000000
C    -1.836000000     4.577000000    -1.623000000
H    -2.865000000     4.431000000    -1.307000000
C     0.375000000     4.630000000    -0.826000000
H     1.070000000     4.391000000    -0.026000000
O    -0.578000000     4.358000000     1.924000000
H    -1.086000000     2.664000000     0.660000000
C    -3.411000000     2.382000000     2.707000000
C    -2.585000000     3.114000000     3.778000000
H    -2.836000000     2.878000000     4.814000000
H    -2.769000000     4.188000000     3.701000000
C    -1.038000000     2.806000000     3.741000000
C    -0.138000000     3.563000000     2.908000000
C     1.214000000     3.203000000     2.855000000
H     1.843000000     3.768000000     2.172000000
C     1.744000000     2.310000000     3.773000000
O     3.058000000     1.996000000     3.634000000
C     3.310000000     0.798000000     2.921000000
H     2.441000000     0.524000000     2.306000000
C     4.490000000     0.919000000     1.933000000
C     5.420000000    -0.124000000     1.848000000
H     5.342000000    -1.023000000     2.454000000
C     4.675000000     2.045000000     1.099000000
H     3.953000000     2.857000000     1.139000000
C     5.832000000     2.170000000     0.261000000
O     6.087000000     3.348000000    -0.479000000
C     6.701000000     1.061000000     0.151000000
H     7.542000000     1.067000000    -0.538000000
C     6.492000000    -0.061000000     0.955000000
O     7.431000000    -1.021000000     0.850000000
C     6.906000000    -2.246000000     0.531000000
C     6.085000000    -2.456000000    -0.549000000
H     5.717000000    -1.678000000    -1.212000000
C     7.143000000    -3.232000000     1.445000000
H     7.892000000    -3.079000000     2.217000000
C     6.516000000    -4.462000000     1.320000000
H     6.678000000    -5.269000000     2.031000000
C     5.753000000    -4.775000000     0.164000000
H     5.220000000    -5.714000000     0.041000000
C     5.506000000    -3.723000000    -0.741000000
O     4.690000000    -3.994000000    -1.780000000
C     3.315000000    -4.189000000    -1.650000000
C     2.598000000    -4.735000000    -2.752000000
H     3.122000000    -5.120000000    -3.622000000
C     1.256000000    -5.052000000    -2.635000000
O     0.695000000    -5.610000000    -3.763000000
C    -0.665000000    -5.478000000    -4.056000000
C    -1.278000000    -4.224000000    -4.421000000
H    -0.641000000    -3.344000000    -4.479000000
C    -1.496000000    -6.565000000    -3.949000000
H    -1.185000000    -7.557000000    -3.630000000
C    -2.859000000    -6.393000000    -4.110000000
H    -3.526000000    -7.216000000    -3.869000000
C    -3.390000000    -5.214000000    -4.589000000
H    -4.467000000    -5.174000000    -4.723000000
C    -2.613000000    -4.089000000    -4.719000000
O    -3.275000000    -3.029000000    -5.144000000
C    -3.608000000    -1.938000000    -4.411000000
C    -4.089000000    -0.879000000    -5.155000000
H    -4.141000000    -0.936000000    -6.239000000
C    -4.531000000     0.239000000    -4.489000000
O    -4.950000000     1.387000000    -5.149000000
C    -4.858000000     2.658000000    -4.624000000
C    -3.624000000     3.231000000    -4.585000000
H    -2.728000000     2.714000000    -4.917000000
C    -5.977000000     3.279000000    -4.069000000
H    -6.962000000     2.833000000    -4.184000000
C    -5.894000000     4.557000000    -3.539000000
H    -6.799000000     5.111000000    -3.302000000
C    -4.662000000     5.159000000    -3.529000000
H    -4.557000000     6.202000000    -3.241000000
C    -3.499000000     4.518000000    -3.972000000
O    -2.302000000     5.112000000    -3.947000000
C    -1.417000000     4.958000000    -2.914000000
C    -0.109000000     5.303000000    -3.140000000
H     0.326000000     5.752000000    -4.028000000
C     0.809000000     5.081000000    -2.112000000
O     2.138000000     5.285000000    -2.428000000
C     3.203000000     5.346000000    -1.609000000
C     3.257000000     6.414000000    -0.704000000
H     2.520000000     7.211000000    -0.664000000
C     4.345000000     6.438000000     0.216000000
H     4.460000000     7.247000000     0.933000000
C     5.262000000     5.448000000     0.192000000
H     6.076000000     5.455000000     0.912000000
C     5.100000000     4.344000000    -0.615000000
C     4.011000000     4.217000000    -1.480000000
H     3.871000000     3.372000000    -2.149000000
O    -2.500000000     3.973000000    -7.390000000
H    -1.932000000     4.582000000    -7.862000000
H    -2.095000000     3.887000000    -6.527000000
O     7.088000000     4.525000000    -7.450000000
H     6.677000000     4.184000000    -6.656000000
H     6.755000000     3.966000000    -8.152000000
O     5.090000000     3.615000000    -5.484000000
H     5.525000000     4.193000000    -4.856000000
H     4.458000000     3.124000000    -4.958000000
O     0.234000000    -0.537000000    -5.618000000
H     1.061000000    -0.553000000    -6.100000000
H     0.459000000    -0.862000000    -4.746000000
O     3.926000000    -1.657000000    -7.403000000
H     4.232000000    -0.829000000    -7.032000000
H     3.531000000    -1.413000000    -8.240000000
O     4.500000000     0.572000000    -5.959000000
H     4.311000000     1.259000000    -6.598000000
H     4.182000000     0.924000000    -5.128000000
O     2.350000000     4.759000000    -6.053000000
H     1.946000000     4.084000000    -5.507000000
H     3.284000000     4.550000000    -6.040000000
O     6.146000000     1.973000000    -3.101000000
H     5.218000000     2.044000000    -3.327000000
H     6.308000000     2.717000000    -2.521000000
O    -1.673000000    -0.052000000    -7.539000000
H    -1.207000000    -0.505000000    -6.837000000
H    -1.513000000    -0.586000000    -8.317000000
O     7.197000000    -0.007000000    -6.178000000
H     6.324000000     0.369000000    -6.070000000
H     7.676000000     0.643000000    -6.694000000
O     7.588000000    -0.178000000    -3.342000000
H     6.962000000     0.542000000    -3.267000000
H     7.323000000    -0.644000000    -4.135000000
O     3.241000000     4.966000000    -9.183000000
H     3.004000000     4.883000000    -8.260000000
H     3.303000000     5.910000000    -9.331000000
O     2.052000000     1.956000000   -10.000000000
H     2.746000000     2.540000000    -9.693000000
H     1.244000000     2.353000000    -9.676000000
O     5.932000000    -2.438000000    -4.877000000
H     5.044000000    -2.265000000    -4.563000000
H     6.093000000    -1.754000000    -5.527000000
O    -0.612000000     2.481000000    -5.958000000
H     0.083000000     2.826000000    -5.397000000
H    -0.575000000     1.533000000    -5.831000000
O     2.432000000     1.964000000    -7.102000000
H     1.752000000     2.276000000    -7.700000000
H     2.095000000     2.169000000    -6.229000000
O    -0.164000000     2.613000000    -8.745000000
H    -0.580000000     1.816000000    -9.073000000
H    -0.568000000     2.761000000    -7.890000000
O     1.696000000    -3.279000000    -5.906000000
H     2.573000000    -2.915000000    -6.025000000
H     1.714000000    -4.106000000    -6.388000000
O     5.814000000     5.276000000    -3.454000000
H     6.378000000     5.748000000    -2.841000000
H     5.126000000     5.902000000    -3.677000000
