201
-1242.83829
C    -0.055000000    -4.424000000    -0.035000000
H    -1.064000000    -4.068000000     0.156000000
C     0.882000000    -4.302000000     1.019000000
C     2.176000000    -4.743000000     0.801000000
H     2.890000000    -4.392000000     1.542000000
C     0.483000000    -3.421000000     2.291000000
O    -0.761000000    -3.821000000     2.968000000
H     0.400000000    -2.405000000     1.879000000
O     1.459000000    -3.361000000     3.350000000
C     1.770000000    -2.131000000     3.950000000
C     2.949000000    -1.571000000     3.434000000
H     3.600000000    -2.175000000     2.807000000
C     3.057000000    -0.185000000     3.574000000
O     4.107000000     0.413000000     2.939000000
C     2.162000000     0.568000000     4.318000000
C     2.417000000     2.043000000     4.537000000
H     2.108000000     2.396000000     5.523000000
C     1.883000000     2.979000000     3.419000000
C     0.637000000     3.529000000     3.577000000
H     0.032000000     3.309000000     4.453000000
H     3.501000000     2.175000000     4.560000000
C     1.076000000    -0.069000000     4.848000000
H     0.237000000     0.398000000     5.359000000
C     0.819000000    -1.420000000     4.652000000
C    -0.407000000    -1.997000000     5.262000000
H    -0.558000000    -1.380000000     6.150000000
H    -0.417000000    -3.023000000     5.636000000
C    -1.566000000    -1.919000000     4.258000000
C    -2.461000000    -0.912000000     4.327000000
H    -2.259000000    -0.146000000     5.071000000
C    -1.709000000    -2.819000000     3.174000000
C    -2.794000000    -2.675000000     2.293000000
H    -2.892000000    -3.450000000     1.538000000
C    -3.701000000    -1.583000000     2.411000000
O    -4.664000000    -1.396000000     1.468000000
C    -4.484000000    -0.330000000     0.423000000
C    -5.008000000    -0.767000000    -0.877000000
C    -5.014000000     0.118000000    -1.945000000
H    -4.911000000     1.173000000    -1.706000000
C    -5.106000000    -2.176000000    -1.102000000
H    -4.738000000    -2.868000000    -0.350000000
O    -5.165000000     0.787000000     0.930000000
H    -3.416000000    -0.200000000     0.193000000
C    -3.528000000    -0.652000000     3.448000000
C    -4.307000000     0.628000000     3.591000000
H    -4.263000000     0.916000000     4.644000000
H    -5.371000000     0.418000000     3.463000000
C    -3.915000000     1.787000000     2.696000000
C    -3.094000000     2.808000000     3.171000000
H    -2.705000000     2.823000000     4.186000000
C    -4.415000000     1.861000000     1.373000000
C    -3.840000000     2.778000000     0.483000000
H    -4.119000000     2.855000000    -0.565000000
C    -2.816000000     3.614000000     0.902000000
O    -2.134000000     4.329000000    -0.087000000
C    -0.827000000     3.901000000    -0.435000000
C    -0.597000000     3.997000000    -1.927000000
C    -1.684000000     4.048000000    -2.774000000
H    -2.659000000     4.319000000    -2.376000000
C     0.636000000     3.870000000    -2.519000000
H     1.516000000     3.711000000    -1.901000000
O     0.076000000     4.788000000     0.135000000
H    -0.498000000     2.899000000    -0.123000000
C    -2.496000000     3.707000000     2.254000000
C    -1.390000000     4.678000000     2.729000000
H    -1.577000000     4.872000000     3.788000000
H    -1.631000000     5.644000000     2.280000000
C     0.029000000     4.206000000     2.504000000
C     0.732000000     4.373000000     1.284000000
C     2.015000000     3.823000000     1.164000000
H     2.522000000     3.885000000     0.204000000
C     2.601000000     3.169000000     2.247000000
O     3.796000000     2.507000000     1.991000000
C     3.741000000     1.065000000     1.727000000
H     2.703000000     0.772000000     1.507000000
C     4.672000000     0.635000000     0.577000000
C     5.337000000    -0.595000000     0.570000000
H     5.172000000    -1.273000000     1.404000000
C     4.999000000     1.513000000    -0.455000000
H     4.564000000     2.507000000    -0.393000000
C     5.789000000     1.155000000    -1.525000000
O     6.104000000     2.011000000    -2.526000000
C     6.305000000    -0.134000000    -1.577000000
H     6.961000000    -0.449000000    -2.384000000
C     6.199000000    -0.940000000    -0.459000000
O     6.912000000    -2.114000000    -0.453000000
C     6.424000000    -3.267000000     0.048000000
C     5.336000000    -3.953000000    -0.528000000
H     4.782000000    -3.485000000    -1.337000000
C     7.092000000    -3.797000000     1.129000000
H     7.734000000    -3.124000000     1.692000000
C     6.744000000    -5.076000000     1.613000000
H     7.212000000    -5.577000000     2.457000000
C     5.714000000    -5.814000000     0.970000000
H     5.534000000    -6.848000000     1.252000000
C     4.980000000    -5.179000000    -0.010000000
O     3.848000000    -5.735000000    -0.655000000
C     2.557000000    -5.345000000    -0.421000000
C     1.533000000    -5.515000000    -1.412000000
H     1.809000000    -6.021000000    -2.334000000
C     0.296000000    -5.103000000    -1.237000000
O    -0.584000000    -5.268000000    -2.168000000
C    -1.915000000    -5.411000000    -1.875000000
C    -2.836000000    -4.479000000    -2.355000000
H    -2.420000000    -3.578000000    -2.799000000
C    -2.252000000    -6.592000000    -1.311000000
H    -1.428000000    -7.248000000    -1.045000000
C    -3.605000000    -6.869000000    -1.151000000
H    -3.961000000    -7.845000000    -0.832000000
C    -4.640000000    -6.034000000    -1.672000000
H    -5.700000000    -6.200000000    -1.498000000
C    -4.238000000    -4.789000000    -2.196000000
O    -5.172000000    -3.951000000    -2.724000000
C    -5.228000000    -2.669000000    -2.400000000
C    -5.191000000    -1.749000000    -3.401000000
H    -5.234000000    -2.112000000    -4.424000000
C    -5.108000000    -0.394000000    -3.241000000
O    -5.143000000     0.292000000    -4.436000000
C    -5.217000000     1.648000000    -4.554000000
C    -3.921000000     2.251000000    -4.610000000
H    -3.075000000     1.571000000    -4.675000000
C    -6.388000000     2.367000000    -4.425000000
H    -7.308000000     1.842000000    -4.180000000
C    -6.269000000     3.760000000    -4.416000000
H    -7.128000000     4.413000000    -4.283000000
C    -5.044000000     4.360000000    -4.536000000
H    -4.978000000     5.445000000    -4.528000000
C    -3.862000000     3.638000000    -4.692000000
O    -2.667000000     4.240000000    -5.008000000
C    -1.535000000     4.093000000    -4.203000000
C    -0.241000000     3.989000000    -4.726000000
H    -0.047000000     3.826000000    -5.783000000
C     0.891000000     3.939000000    -3.897000000
O     2.112000000     3.518000000    -4.469000000
C     3.309000000     3.868000000    -3.942000000
C     3.787000000     5.182000000    -3.730000000
H     3.165000000     6.032000000    -4.000000000
C     5.092000000     5.427000000    -3.244000000
H     5.451000000     6.446000000    -3.126000000
C     5.824000000     4.318000000    -2.839000000
H     6.760000000     4.522000000    -2.325000000
C     5.333000000     3.031000000    -3.006000000
C     4.173000000     2.812000000    -3.661000000
H     3.802000000     1.791000000    -3.721000000
O    -4.171000000    -4.356000000    -5.526000000
H    -5.043000000    -4.429000000    -5.138000000
H    -3.828000000    -3.529000000    -5.189000000
O    -2.420000000    -2.301000000    -5.114000000
H    -2.642000000    -1.516000000    -5.615000000
H    -1.463000000    -2.312000000    -5.098000000
O     6.173000000    -4.523000000    -5.874000000
H     5.477000000    -4.364000000    -5.236000000
H     6.956000000    -4.146000000    -5.473000000
O     3.528000000    -5.637000000    -7.548000000
H     3.432000000    -4.728000000    -7.263000000
H     2.676000000    -5.861000000    -7.924000000
O     4.068000000    -4.257000000    -4.189000000
H     3.396000000    -3.609000000    -3.976000000
H     3.576000000    -5.048000000    -4.409000000
O     4.104000000    -1.004000000    -5.201000000
H     3.406000000    -1.523000000    -4.802000000
H     4.896000000    -1.270000000    -4.735000000
O     2.079000000    -3.125000000    -6.886000000
H     2.007000000    -2.181000000    -7.028000000
H     1.873000000    -3.245000000    -5.959000000
O     4.619000000    -1.039000000    -8.045000000
H     4.421000000    -1.073000000    -7.109000000
H     5.173000000    -0.266000000    -8.145000000
O     3.767000000     1.997000000    -8.401000000
H     3.251000000     1.454000000    -7.805000000
H     4.234000000     1.369000000    -8.953000000
O     6.348000000    -2.086000000    -4.198000000
H     7.193000000    -2.426000000    -4.493000000
H     6.029000000    -2.743000000    -3.579000000
O    -3.415000000    -0.348000000    -6.646000000
H    -3.687000000    -1.076000000    -7.204000000
H    -4.224000000    -0.053000000    -6.226000000
O    -2.040000000    -4.228000000    -7.275000000
H    -2.582000000    -3.720000000    -7.879000000
H    -2.572000000    -4.308000000    -6.484000000
O    -0.049000000    -0.419000000    -6.670000000
H    -0.056000000    -1.080000000    -5.978000000
H    -0.881000000     0.045000000    -6.566000000
O     2.504000000    -6.034000000    -5.198000000
H     2.727000000    -6.257000000    -6.102000000
H     1.748000000    -5.451000000    -5.274000000
O     1.205000000    -0.500000000    -9.126000000
H     0.422000000    -0.383000000    -9.666000000
H     0.866000000    -0.663000000    -8.246000000
O     0.144000000    -4.730000000    -5.536000000
H     0.070000000    -3.875000000    -5.112000000
H    -0.614000000    -4.775000000    -6.119000000
O     2.476000000     1.099000000    -6.204000000
H     3.013000000     0.645000000    -5.554000000
H     1.610000000     0.701000000    -6.118000000
O    -0.166000000    -7.207000000    -4.339000000
H     0.026000000    -6.575000000    -3.646000000
H    -0.160000000    -6.688000000    -5.144000000
O     0.480000000    -3.951000000    -9.042000000
H     0.980000000    -3.613000000    -8.299000000
H    -0.358000000    -3.491000000    -8.995000000
