201
-1249.67380
C    -4.333000000    -1.464000000    -2.060000000
H    -4.108000000    -0.932000000    -2.981000000
C    -4.339000000    -0.760000000    -0.843000000
C    -4.622000000    -1.427000000     0.350000000
H    -4.530000000    -0.883000000     1.286000000
C    -3.888000000     0.749000000    -0.908000000
O    -4.062000000     1.336000000    -2.138000000
H    -2.826000000     0.826000000    -0.629000000
O    -4.581000000     1.553000000     0.173000000
C    -3.946000000     2.431000000     0.999000000
C    -3.548000000     1.870000000     2.217000000
H    -4.067000000     1.036000000     2.683000000
C    -2.658000000     2.607000000     2.990000000
O    -2.236000000     1.938000000     4.116000000
C    -2.097000000     3.832000000     2.591000000
C    -0.889000000     4.501000000     3.297000000
H    -0.775000000     5.577000000     3.155000000
C     0.412000000     3.873000000     2.893000000
C     1.294000000     4.516000000     2.005000000
H     1.039000000     5.469000000     1.547000000
H    -0.955000000     4.420000000     4.384000000
C    -2.445000000     4.264000000     1.282000000
H    -1.973000000     5.157000000     0.882000000
C    -3.335000000     3.594000000     0.499000000
C    -3.612000000     4.091000000    -0.947000000
H    -3.404000000     5.163000000    -0.900000000
H    -4.653000000     3.939000000    -1.237000000
C    -2.770000000     3.457000000    -2.054000000
C    -1.614000000     4.139000000    -2.494000000
H    -1.413000000     5.110000000    -2.050000000
C    -3.025000000     2.178000000    -2.626000000
C    -2.130000000     1.623000000    -3.558000000
H    -2.332000000     0.640000000    -3.976000000
C    -0.987000000     2.315000000    -3.886000000
O    -0.191000000     1.645000000    -4.714000000
C     1.030000000     1.030000000    -4.232000000
C     1.227000000    -0.349000000    -4.711000000
C     2.348000000    -1.132000000    -4.369000000
H     3.148000000    -0.649000000    -3.813000000
C     0.153000000    -0.967000000    -5.370000000
H    -0.714000000    -0.415000000    -5.724000000
O     2.152000000     1.868000000    -4.403000000
H     0.812000000     0.918000000    -3.160000000
C    -0.778000000     3.567000000    -3.422000000
C     0.518000000     4.299000000    -3.813000000
H     0.308000000     5.370000000    -3.826000000
H     0.743000000     4.295000000    -4.881000000
C     1.736000000     3.846000000    -2.954000000
C     2.036000000     4.491000000    -1.770000000
H     1.541000000     5.405000000    -1.451000000
C     2.422000000     2.647000000    -3.277000000
C     3.394000000     2.177000000    -2.440000000
H     3.872000000     1.230000000    -2.680000000
C     3.620000000     2.781000000    -1.254000000
O     4.447000000     2.122000000    -0.384000000
C     3.829000000     1.296000000     0.665000000
C     4.665000000    -0.007000000     0.868000000
C     5.601000000    -0.540000000    -0.069000000
H     5.752000000    -0.022000000    -1.013000000
C     4.286000000    -0.793000000     1.914000000
H     3.593000000    -0.405000000     2.657000000
O     3.971000000     2.028000000     1.837000000
H     2.843000000     0.934000000     0.339000000
C     2.958000000     3.955000000    -0.875000000
C     3.236000000     4.507000000     0.459000000
H     3.074000000     5.586000000     0.494000000
H     4.312000000     4.345000000     0.552000000
C     2.474000000     3.835000000     1.589000000
C     2.804000000     2.632000000     2.165000000
C     2.012000000     2.050000000     3.178000000
H     2.232000000     1.155000000     3.756000000
C     0.825000000     2.659000000     3.520000000
O     0.017000000     2.024000000     4.419000000
C    -1.012000000     1.151000000     3.924000000
H    -0.865000000     0.889000000     2.866000000
C    -1.167000000    -0.059000000     4.758000000
C    -2.401000000    -0.765000000     4.952000000
H    -3.347000000    -0.351000000     4.615000000
C    -0.053000000    -0.666000000     5.190000000
H     0.824000000    -0.026000000     5.141000000
C    -0.067000000    -1.894000000     5.899000000
O     1.084000000    -2.376000000     6.469000000
C    -1.248000000    -2.552000000     6.049000000
H    -1.284000000    -3.512000000     6.559000000
C    -2.408000000    -2.005000000     5.535000000
O    -3.624000000    -2.603000000     5.756000000
C    -4.706000000    -2.676000000     4.912000000
C    -4.447000000    -2.824000000     3.549000000
H    -3.444000000    -2.825000000     3.129000000
C    -6.031000000    -2.780000000     5.424000000
H    -6.191000000    -2.676000000     6.494000000
C    -7.067000000    -2.909000000     4.532000000
H    -8.081000000    -2.997000000     4.914000000
C    -6.790000000    -3.150000000     3.209000000
H    -7.536000000    -3.625000000     2.578000000
C    -5.517000000    -3.071000000     2.671000000
O    -5.210000000    -3.524000000     1.420000000
C    -4.916000000    -2.799000000     0.309000000
C    -4.972000000    -3.399000000    -0.915000000
H    -5.180000000    -4.465000000    -0.892000000
C    -4.607000000    -2.815000000    -2.134000000
O    -4.548000000    -3.565000000    -3.278000000
C    -4.043000000    -3.048000000    -4.436000000
C    -2.671000000    -3.146000000    -4.707000000
H    -1.939000000    -3.728000000    -4.153000000
C    -4.939000000    -2.478000000    -5.313000000
H    -5.938000000    -2.260000000    -4.942000000
C    -4.442000000    -1.960000000    -6.546000000
H    -5.193000000    -1.540000000    -7.210000000
C    -3.125000000    -2.159000000    -6.872000000
H    -2.824000000    -2.033000000    -7.909000000
C    -2.215000000    -2.692000000    -5.940000000
O    -0.907000000    -2.910000000    -6.313000000
C     0.188000000    -2.295000000    -5.679000000
C     1.266000000    -2.976000000    -5.232000000
H     1.360000000    -4.021000000    -5.515000000
C     2.272000000    -2.440000000    -4.508000000
O     3.169000000    -3.246000000    -3.810000000
C     4.533000000    -2.912000000    -3.618000000
C     5.049000000    -2.877000000    -2.349000000
H     4.401000000    -3.141000000    -1.517000000
C     5.370000000    -2.818000000    -4.736000000
H     4.925000000    -2.872000000    -5.726000000
C     6.678000000    -2.406000000    -4.606000000
H     7.242000000    -2.277000000    -5.526000000
C     7.175000000    -2.222000000    -3.314000000
H     8.173000000    -1.804000000    -3.208000000
C     6.388000000    -2.500000000    -2.156000000
O     6.960000000    -2.352000000    -0.902000000
C     6.161000000    -1.846000000     0.114000000
C     5.776000000    -2.643000000     1.215000000
H     6.050000000    -3.694000000     1.167000000
C     4.886000000    -2.055000000     2.126000000
O     4.354000000    -2.812000000     3.111000000
C     4.028000000    -2.358000000     4.375000000
C     4.918000000    -1.640000000     5.156000000
H     5.947000000    -1.489000000     4.841000000
C     4.492000000    -1.131000000     6.365000000
H     5.145000000    -0.444000000     6.897000000
C     3.228000000    -1.374000000     6.855000000
H     2.974000000    -0.937000000     7.818000000
C     2.331000000    -2.114000000     6.120000000
C     2.736000000    -2.557000000     4.854000000
H     2.042000000    -3.076000000     4.197000000
O     0.623000000    -5.335000000    -0.806000000
H     0.051000000    -5.658000000    -1.502000000
H     0.026000000    -5.093000000    -0.098000000
O    -6.762000000    -6.172000000     1.142000000
H    -5.847000000    -5.910000000     1.035000000
H    -7.258000000    -5.511000000     0.659000000
O    -6.407000000    -6.207000000     3.862000000
H    -6.143000000    -6.609000000     3.035000000
H    -6.357000000    -5.266000000     3.698000000
O    -1.464000000    -8.708000000    -1.009000000
H    -1.556000000    -9.644000000    -0.834000000
H    -1.512000000    -8.296000000    -0.146000000
O    -3.055000000    -5.608000000     4.508000000
H    -2.531000000    -5.143000000     3.856000000
H    -2.427000000    -5.858000000     5.186000000
O    -0.629000000    -6.665000000    -2.571000000
H     0.185000000    -6.513000000    -3.050000000
H    -0.522000000    -7.534000000    -2.185000000
O     1.422000000    -9.522000000     1.555000000
H     0.730000000    -8.884000000     1.727000000
H     1.233000000   -10.247000000     2.152000000
O     1.610000000    -7.931000000    -0.736000000
H     1.266000000    -7.104000000    -0.400000000
H     1.182000000    -8.602000000    -0.204000000
O    -4.756000000    -8.486000000    -0.545000000
H    -4.277000000    -8.931000000    -1.244000000
H    -4.473000000    -7.574000000    -0.603000000
O    -3.122000000    -6.279000000    -1.143000000
H    -2.477000000    -6.528000000    -1.805000000
H    -2.607000000    -5.870000000    -0.448000000
O    -1.030000000    -7.888000000     1.496000000
H    -1.027000000    -6.931000000     1.467000000
H    -1.352000000    -8.099000000     2.372000000
O     0.438000000    -5.960000000     4.434000000
H     0.110000000    -6.786000000     4.078000000
H     0.041000000    -5.286000000     3.882000000
O    -1.989000000    -8.481000000     3.836000000
H    -1.750000000    -9.249000000     4.355000000
H    -2.941000000    -8.538000000     3.749000000
O    -3.836000000    -6.142000000     2.048000000
H    -3.781000000    -6.124000000     3.003000000
H    -3.028000000    -5.722000000     1.753000000
O     2.871000000    -4.496000000     0.424000000
H     2.852000000    -3.540000000     0.381000000
H     2.138000000    -4.775000000    -0.125000000
O     2.886000000    -6.230000000     2.577000000
H     1.997000000    -6.462000000     2.844000000
H     2.771000000    -5.504000000     1.964000000
O    -4.711000000    -8.080000000     5.282000000
H    -5.588000000    -8.280000000     4.955000000
H    -4.602000000    -7.143000000     5.117000000
O     1.630000000    -5.973000000     7.293000000
H     1.208000000    -5.865000000     6.440000000
H     2.567000000    -5.966000000     7.099000000
O    -4.956000000    -8.528000000     2.360000000
H    -5.246000000    -8.644000000     1.455000000
H    -4.521000000    -7.675000000     2.364000000
