201
-1238.48269
C    -5.065000000    -1.086000000    -1.729000000
H    -5.026000000    -0.538000000    -2.668000000
C    -4.726000000    -0.500000000    -0.497000000
C    -4.785000000    -1.305000000     0.631000000
H    -4.480000000    -0.997000000     1.627000000
C    -4.118000000     0.877000000    -0.451000000
O    -4.276000000     1.554000000    -1.761000000
H    -3.046000000     0.814000000    -0.214000000
O    -4.736000000     1.682000000     0.608000000
C    -3.859000000     2.510000000     1.297000000
C    -3.401000000     2.076000000     2.546000000
H    -3.824000000     1.140000000     2.902000000
C    -2.482000000     2.785000000     3.262000000
O    -1.936000000     2.110000000     4.351000000
C    -1.883000000     3.871000000     2.633000000
C    -0.721000000     4.587000000     3.330000000
H    -0.778000000     5.638000000     3.040000000
C     0.543000000     3.878000000     2.915000000
C     1.268000000     4.399000000     1.808000000
H     0.842000000     5.248000000     1.280000000
H    -0.845000000     4.474000000     4.409000000
C    -2.307000000     4.322000000     1.385000000
H    -1.835000000     5.207000000     0.965000000
C    -3.266000000     3.656000000     0.656000000
C    -3.684000000     4.141000000    -0.658000000
H    -3.596000000     5.228000000    -0.724000000
H    -4.707000000     3.864000000    -0.924000000
C    -2.864000000     3.495000000    -1.753000000
C    -1.685000000     4.069000000    -2.239000000
H    -1.401000000     5.016000000    -1.787000000
C    -3.157000000     2.196000000    -2.235000000
C    -2.424000000     1.672000000    -3.276000000
H    -2.607000000     0.702000000    -3.731000000
C    -1.274000000     2.285000000    -3.713000000
O    -0.494000000     1.703000000    -4.693000000
C     0.695000000     1.031000000    -4.269000000
C     0.805000000    -0.463000000    -4.720000000
C     2.064000000    -1.182000000    -4.482000000
H     2.950000000    -0.658000000    -4.133000000
C    -0.361000000    -1.143000000    -5.109000000
H    -1.262000000    -0.541000000    -5.191000000
O     1.919000000     1.767000000    -4.448000000
H     0.568000000     0.904000000    -3.184000000
C    -0.897000000     3.534000000    -3.229000000
C     0.311000000     4.325000000    -3.722000000
H     0.294000000     5.416000000    -3.666000000
H     0.355000000     4.050000000    -4.778000000
C     1.567000000     3.746000000    -3.048000000
C     2.059000000     4.448000000    -1.911000000
H     1.500000000     5.342000000    -1.646000000
C     2.241000000     2.564000000    -3.393000000
C     3.308000000     2.079000000    -2.674000000
H     3.729000000     1.135000000    -3.010000000
C     3.723000000     2.737000000    -1.494000000
O     4.550000000     2.011000000    -0.677000000
C     3.969000000     1.240000000     0.381000000
C     4.691000000    -0.116000000     0.600000000
C     5.624000000    -0.563000000    -0.337000000
H     5.996000000     0.022000000    -1.174000000
C     4.283000000    -1.005000000     1.608000000
H     3.730000000    -0.565000000     2.434000000
O     3.984000000     1.924000000     1.620000000
H     2.949000000     1.076000000     0.004000000
C     3.100000000     3.930000000    -1.074000000
C     3.219000000     4.476000000     0.268000000
H     3.044000000     5.551000000     0.192000000
H     4.246000000     4.344000000     0.614000000
C     2.472000000     3.819000000     1.459000000
C     2.850000000     2.576000000     1.970000000
C     2.218000000     2.040000000     3.072000000
H     2.650000000     1.131000000     3.485000000
C     1.077000000     2.703000000     3.527000000
O     0.388000000     2.096000000     4.557000000
C    -0.746000000     1.341000000     4.147000000
H    -0.602000000     1.165000000     3.071000000
C    -0.798000000    -0.080000000     4.814000000
C    -2.005000000    -0.731000000     4.887000000
H    -2.873000000    -0.191000000     4.518000000
C     0.383000000    -0.684000000     5.201000000
H     1.367000000    -0.289000000     4.960000000
C     0.326000000    -1.856000000     5.925000000
O     1.463000000    -2.476000000     6.349000000
C    -0.928000000    -2.423000000     6.233000000
H    -1.008000000    -3.402000000     6.699000000
C    -2.106000000    -1.807000000     5.706000000
O    -3.349000000    -2.325000000     5.971000000
C    -4.436000000    -2.399000000     5.100000000
C    -4.261000000    -2.911000000     3.830000000
H    -3.245000000    -3.237000000     3.624000000
C    -5.782000000    -2.176000000     5.597000000
H    -5.914000000    -1.777000000     6.599000000
C    -6.806000000    -2.355000000     4.718000000
H    -7.833000000    -2.205000000     5.043000000
C    -6.612000000    -2.668000000     3.356000000
H    -7.421000000    -2.720000000     2.632000000
C    -5.272000000    -2.949000000     2.952000000
O    -5.031000000    -3.395000000     1.716000000
C    -5.071000000    -2.655000000     0.538000000
C    -5.280000000    -3.282000000    -0.691000000
H    -5.508000000    -4.343000000    -0.756000000
C    -5.218000000    -2.518000000    -1.861000000
O    -5.593000000    -3.128000000    -3.126000000
C    -4.725000000    -2.784000000    -4.195000000
C    -3.429000000    -3.244000000    -4.248000000
H    -2.930000000    -3.705000000    -3.399000000
C    -5.333000000    -2.122000000    -5.250000000
H    -6.378000000    -1.878000000    -5.074000000
C    -4.645000000    -1.868000000    -6.425000000
H    -5.256000000    -1.465000000    -7.228000000
C    -3.349000000    -2.415000000    -6.517000000
H    -2.772000000    -2.372000000    -7.437000000
C    -2.670000000    -2.934000000    -5.394000000
O    -1.309000000    -3.362000000    -5.479000000
C    -0.220000000    -2.544000000    -5.292000000
C     1.010000000    -3.220000000    -5.163000000
H     1.024000000    -4.298000000    -5.304000000
C     2.153000000    -2.527000000    -4.885000000
O     3.339000000    -3.295000000    -4.666000000
C     4.642000000    -2.778000000    -4.373000000
C     4.973000000    -2.553000000    -3.043000000
H     4.217000000    -2.600000000    -2.263000000
C     5.641000000    -2.769000000    -5.383000000
H     5.374000000    -3.054000000    -6.398000000
C     6.967000000    -2.501000000    -5.020000000
H     7.790000000    -2.461000000    -5.729000000
C     7.307000000    -2.262000000    -3.675000000
H     8.338000000    -2.359000000    -3.343000000
C     6.345000000    -2.398000000    -2.640000000
O     6.856000000    -2.350000000    -1.317000000
C     6.169000000    -1.810000000    -0.234000000
C     5.728000000    -2.713000000     0.726000000
H     6.142000000    -3.719000000     0.718000000
C     4.825000000    -2.295000000     1.735000000
O     4.500000000    -3.191000000     2.766000000
C     4.288000000    -2.703000000     4.032000000
C     5.286000000    -2.154000000     4.859000000
H     6.226000000    -1.949000000     4.353000000
C     5.028000000    -1.796000000     6.128000000
H     5.823000000    -1.485000000     6.802000000
C     3.728000000    -1.984000000     6.632000000
H     3.450000000    -1.806000000     7.667000000
C     2.703000000    -2.368000000     5.826000000
C     3.016000000    -2.830000000     4.545000000
H     2.256000000    -3.199000000     3.861000000
O     0.086000000    -6.682000000    -0.830000000
H    -0.059000000    -7.587000000    -1.107000000
H    -0.681000000    -6.469000000    -0.299000000
O    -5.647000000    -6.858000000     1.239000000
H    -5.429000000    -7.577000000     0.646000000
H    -4.899000000    -6.802000000     1.833000000
O     0.350000000   -10.530000000     2.172000000
H    -0.310000000   -10.132000000     2.739000000
H    -0.053000000   -11.345000000     1.872000000
O    -7.355000000    -6.768000000     3.776000000
H    -7.667000000    -6.289000000     3.008000000
H    -6.411000000    -6.853000000     3.637000000
O    -1.894000000    -8.527000000     0.041000000
H    -1.474000000    -8.671000000     0.889000000
H    -2.204000000    -7.622000000     0.078000000
O    -3.966000000    -6.688000000     3.586000000
H    -3.345000000    -6.031000000     3.271000000
H    -3.716000000    -7.492000000     3.131000000
O    -1.694000000   -11.116000000    -0.544000000
H    -1.882000000   -11.382000000    -1.444000000
H    -1.598000000   -10.165000000    -0.591000000
O    -1.348000000    -6.123000000    -3.671000000
H    -1.497000000    -5.341000000    -4.203000000
H    -0.468000000    -6.412000000    -3.911000000
O     2.099000000    -8.268000000     1.467000000
H     1.839000000    -7.388000000     1.739000000
H     1.413000000    -8.839000000     1.813000000
O    -5.418000000    -8.943000000    -0.842000000
H    -6.000000000    -9.580000000    -1.257000000
H    -4.594000000    -9.023000000    -1.322000000
O    -3.847000000    -6.528000000    -1.952000000
H    -3.036000000    -6.648000000    -2.446000000
H    -3.564000000    -6.448000000    -1.041000000
O    -1.475000000    -8.113000000     2.812000000
H    -1.590000000    -7.163000000     2.813000000
H    -1.289000000    -8.332000000     3.725000000
O    -0.258000000    -5.662000000     4.544000000
H    -0.385000000    -6.556000000     4.860000000
H    -0.878000000    -5.573000000     3.820000000
O    -0.921000000    -8.110000000     5.492000000
H    -1.877000000    -8.125000000     5.511000000
H    -0.659000000    -8.457000000     6.344000000
O    -4.274000000    -9.399000000     3.333000000
H    -3.638000000    -9.768000000     3.946000000
H    -4.207000000    -9.953000000     2.556000000
O     1.615000000    -4.791000000     0.854000000
H     1.138000000    -5.442000000     0.341000000
H     0.996000000    -4.068000000     0.959000000
O    -4.096000000    -7.877000000     6.050000000
H    -4.655000000    -7.304000000     6.575000000
H    -4.023000000    -7.433000000     5.205000000
O    -8.277000000    -5.564000000     1.485000000
H    -8.705000000    -6.018000000     0.759000000
H    -7.341000000    -5.679000000     1.322000000
O     2.359000000    -5.872000000     3.774000000
H     1.443000000    -6.034000000     3.998000000
H     2.334000000    -5.107000000     3.199000000
