201
-1246.89868
C     0.190000000    -5.015000000    -0.589000000
H    -0.856000000    -4.752000000    -0.725000000
C     0.960000000    -4.631000000     0.524000000
C     2.277000000    -4.779000000     0.520000000
H     2.801000000    -4.474000000     1.422000000
C     0.280000000    -3.852000000     1.710000000
O    -1.099000000    -4.253000000     2.030000000
H     0.260000000    -2.767000000     1.533000000
O     1.030000000    -3.954000000     2.994000000
C     1.283000000    -2.739000000     3.674000000
C     2.460000000    -2.029000000     3.491000000
H     3.338000000    -2.451000000     3.008000000
C     2.560000000    -0.680000000     3.864000000
O     3.612000000     0.138000000     3.487000000
C     1.430000000    -0.076000000     4.485000000
C     1.540000000     1.331000000     5.086000000
H     0.909000000     1.444000000     5.970000000
C     1.026000000     2.343000000     4.041000000
C    -0.331000000     2.769000000     4.072000000
H    -1.059000000     2.509000000     4.836000000
H     2.553000000     1.627000000     5.370000000
C     0.325000000    -0.865000000     4.826000000
H    -0.538000000    -0.493000000     5.372000000
C     0.208000000    -2.156000000     4.353000000
C    -1.119000000    -2.822000000     4.575000000
H    -1.502000000    -2.395000000     5.504000000
H    -1.012000000    -3.906000000     4.653000000
C    -2.133000000    -2.617000000     3.479000000
C    -3.043000000    -1.543000000     3.617000000
H    -3.044000000    -0.999000000     4.559000000
C    -2.091000000    -3.335000000     2.275000000
C    -3.015000000    -3.123000000     1.300000000
H    -3.045000000    -3.641000000     0.345000000
C    -3.919000000    -2.073000000     1.434000000
O    -4.707000000    -1.806000000     0.345000000
C    -4.315000000    -0.717000000    -0.503000000
C    -4.404000000    -1.110000000    -1.932000000
C    -4.557000000    -0.116000000    -2.887000000
H    -4.728000000     0.928000000    -2.640000000
C    -4.123000000    -2.450000000    -2.347000000
H    -3.849000000    -3.233000000    -1.644000000
O    -5.111000000     0.384000000    -0.141000000
H    -3.260000000    -0.465000000    -0.317000000
C    -3.972000000    -1.288000000     2.596000000
C    -4.936000000    -0.170000000     2.679000000
H    -5.300000000    -0.023000000     3.698000000
H    -5.888000000    -0.452000000     2.223000000
C    -4.437000000     1.131000000     2.107000000
C    -3.651000000     2.104000000     2.817000000
H    -3.627000000     1.995000000     3.898000000
C    -4.588000000     1.354000000     0.736000000
C    -3.871000000     2.340000000     0.129000000
H    -3.821000000     2.317000000    -0.957000000
C    -3.158000000     3.300000000     0.835000000
O    -2.353000000     4.189000000     0.049000000
C    -0.972000000     3.866000000    -0.105000000
C    -0.459000000     4.195000000    -1.513000000
C    -1.317000000     4.080000000    -2.629000000
H    -2.394000000     3.957000000    -2.545000000
C     0.896000000     4.530000000    -1.776000000
H     1.548000000     4.589000000    -0.908000000
O    -0.242000000     4.632000000     0.870000000
H    -0.791000000     2.790000000     0.031000000
C    -3.055000000     3.217000000     2.160000000
C    -2.130000000     4.133000000     2.938000000
H    -2.449000000     4.275000000     3.973000000
H    -2.123000000     5.136000000     2.506000000
C    -0.735000000     3.618000000     2.982000000
C     0.144000000     3.959000000     1.985000000
C     1.503000000     3.582000000     2.026000000
H     2.176000000     3.761000000     1.191000000
C     1.898000000     2.748000000     3.035000000
O     3.194000000     2.334000000     2.894000000
C     3.341000000     1.005000000     2.306000000
H     2.445000000     0.687000000     1.752000000
C     4.574000000     1.057000000     1.370000000
C     5.087000000    -0.117000000     0.897000000
H     4.599000000    -1.068000000     1.096000000
C     4.983000000     2.255000000     0.882000000
H     4.497000000     3.181000000     1.180000000
C     6.021000000     2.249000000    -0.022000000
O     6.470000000     3.397000000    -0.543000000
C     6.636000000     1.061000000    -0.419000000
H     7.525000000     1.147000000    -1.037000000
C     6.215000000    -0.146000000     0.044000000
O     6.800000000    -1.306000000    -0.355000000
C     6.376000000    -2.513000000     0.163000000
C     5.712000000    -3.318000000    -0.638000000
H     5.653000000    -2.971000000    -1.666000000
C     6.600000000    -2.812000000     1.474000000
H     7.210000000    -2.198000000     2.132000000
C     5.984000000    -3.938000000     2.026000000
H     6.106000000    -4.195000000     3.075000000
C     5.249000000    -4.797000000     1.267000000
H     4.744000000    -5.672000000     1.668000000
C     5.175000000    -4.493000000    -0.097000000
O     4.357000000    -5.283000000    -0.848000000
C     2.962000000    -5.274000000    -0.646000000
C     2.177000000    -5.850000000    -1.652000000
H     2.632000000    -6.409000000    -2.465000000
C     0.808000000    -5.741000000    -1.610000000
O     0.068000000    -6.265000000    -2.659000000
C    -1.277000000    -6.115000000    -2.689000000
C    -1.838000000    -5.162000000    -3.559000000
H    -1.233000000    -4.560000000    -4.233000000
C    -2.120000000    -6.913000000    -1.857000000
H    -1.673000000    -7.626000000    -1.169000000
C    -3.471000000    -6.837000000    -1.992000000
H    -4.087000000    -7.570000000    -1.476000000
C    -4.041000000    -5.891000000    -2.861000000
H    -5.120000000    -5.765000000    -2.899000000
C    -3.241000000    -5.049000000    -3.614000000
O    -3.795000000    -3.976000000    -4.237000000
C    -4.228000000    -2.790000000    -3.676000000
C    -4.425000000    -1.738000000    -4.612000000
H    -4.497000000    -1.927000000    -5.680000000
C    -4.641000000    -0.444000000    -4.266000000
O    -4.897000000     0.486000000    -5.246000000
C    -4.520000000     1.817000000    -5.215000000
C    -3.204000000     2.335000000    -5.043000000
H    -2.361000000     1.649000000    -5.032000000
C    -5.553000000     2.755000000    -4.982000000
H    -6.586000000     2.428000000    -5.065000000
C    -5.221000000     4.058000000    -4.650000000
H    -5.991000000     4.795000000    -4.438000000
C    -3.936000000     4.609000000    -4.756000000
H    -3.791000000     5.654000000    -4.493000000
C    -2.928000000     3.677000000    -4.928000000
O    -1.616000000     4.022000000    -4.990000000
C    -0.833000000     4.234000000    -3.907000000
C     0.567000000     4.397000000    -4.073000000
H     0.979000000     4.442000000    -5.078000000
C     1.443000000     4.596000000    -3.001000000
O     2.766000000     4.889000000    -3.261000000
C     3.690000000     5.144000000    -2.279000000
C     3.798000000     6.393000000    -1.764000000
H     3.146000000     7.194000000    -2.101000000
C     4.808000000     6.722000000    -0.840000000
H     4.808000000     7.747000000    -0.478000000
C     5.721000000     5.717000000    -0.480000000
H     6.584000000     6.041000000     0.096000000
C     5.581000000     4.419000000    -0.947000000
C     4.525000000     4.077000000    -1.760000000
H     4.483000000     3.052000000    -2.119000000
O     4.758000000     0.176000000    -3.030000000
H     5.181000000    -0.360000000    -2.359000000
H     4.111000000    -0.407000000    -3.428000000
O    -0.741000000     1.798000000    -7.935000000
H    -1.078000000     1.327000000    -8.697000000
H    -0.965000000     1.239000000    -7.191000000
O     3.317000000    -3.415000000    -8.090000000
H     3.454000000    -4.243000000    -8.550000000
H     2.462000000    -3.512000000    -7.671000000
O    -1.750000000    -4.740000000    -8.095000000
H    -1.994000000    -5.064000000    -7.228000000
H    -0.975000000    -4.201000000    -7.940000000
O     4.727000000    -5.673000000    -5.355000000
H     4.743000000    -4.759000000    -5.074000000
H     4.007000000    -5.719000000    -5.984000000
O     6.946000000     1.627000000    -4.264000000
H     6.717000000     1.436000000    -5.173000000
H     6.271000000     1.184000000    -3.749000000
O     5.580000000    -1.762000000    -8.278000000
H     4.980000000    -1.188000000    -8.755000000
H     5.103000000    -2.587000000    -8.190000000
O    -1.007000000    -0.177000000    -6.044000000
H    -1.563000000    -0.952000000    -6.123000000
H    -0.427000000    -0.373000000    -5.308000000
O     6.952000000     1.445000000    -7.519000000
H     6.127000000     1.129000000    -7.150000000
H     6.731000000     1.706000000    -8.413000000
O     2.037000000    -4.048000000    -5.031000000
H     1.980000000    -3.125000000    -5.281000000
H     2.624000000    -4.056000000    -4.276000000
O     4.951000000     0.373000000    -6.226000000
H     4.523000000     0.843000000    -5.510000000
H     4.230000000     0.083000000    -6.786000000
O     2.113000000     0.133000000    -6.912000000
H     1.273000000     0.588000000    -6.978000000
H     2.041000000    -0.387000000    -6.111000000
O     7.422000000    -5.015000000    -4.520000000
H     6.575000000    -4.573000000    -4.464000000
H     7.948000000    -4.613000000    -3.829000000
O     3.716000000     2.817000000    -5.094000000
H     2.825000000     2.726000000    -4.756000000
H     4.176000000     3.325000000    -4.425000000
O     0.677000000    -5.796000000    -6.589000000
H     1.230000000    -5.294000000    -5.991000000
H    -0.077000000    -6.054000000    -6.059000000
O    -0.164000000    -2.546000000    -7.369000000
H     0.050000000    -1.900000000    -6.695000000
H    -0.379000000    -2.023000000    -8.142000000
O     6.928000000    -1.686000000    -5.859000000
H     6.934000000    -2.038000000    -6.749000000
H     6.441000000    -0.865000000    -5.929000000
O     5.178000000    -3.340000000    -4.473000000
H     5.734000000    -2.663000000    -4.859000000
H     4.376000000    -2.878000000    -4.225000000
O     3.519000000    -0.158000000    -9.346000000
H     3.006000000    -0.080000000    -8.542000000
H     3.045000000    -0.803000000    -9.871000000
