201
-1245.54203
C     2.055000000    -3.854000000    -0.284000000
H     1.014000000    -4.138000000    -0.414000000
C     2.481000000    -3.312000000     0.952000000
C     3.871000000    -3.050000000     1.048000000
H     4.231000000    -2.603000000     1.971000000
C     1.497000000    -2.999000000     2.155000000
O     0.767000000    -4.162000000     2.677000000
H     0.854000000    -2.234000000     1.696000000
O     2.332000000    -2.528000000     3.190000000
C     1.895000000    -1.332000000     3.750000000
C     2.711000000    -0.213000000     3.520000000
H     3.709000000    -0.356000000     3.113000000
C     2.291000000     1.008000000     3.968000000
O     2.966000000     2.115000000     3.481000000
C     1.131000000     1.119000000     4.707000000
C     0.579000000     2.495000000     5.065000000
H    -0.089000000     2.407000000     5.924000000
C    -0.185000000     3.133000000     3.865000000
C    -1.576000000     2.896000000     3.869000000
H    -1.963000000     2.285000000     4.681000000
H     1.345000000     3.231000000     5.321000000
C     0.436000000     0.001000000     5.106000000
H    -0.473000000     0.111000000     5.693000000
C     0.776000000    -1.227000000     4.576000000
C    -0.005000000    -2.435000000     4.954000000
H    -0.585000000    -2.255000000     5.861000000
H     0.724000000    -3.204000000     5.219000000
C    -0.922000000    -2.908000000     3.840000000
C    -2.193000000    -2.353000000     3.914000000
H    -2.479000000    -1.702000000     4.737000000
C    -0.565000000    -3.874000000     2.858000000
C    -1.498000000    -4.176000000     1.819000000
H    -1.087000000    -4.766000000     1.003000000
C    -2.734000000    -3.522000000     1.777000000
O    -3.468000000    -3.738000000     0.621000000
C    -3.355000000    -2.692000000    -0.334000000
C    -3.311000000    -3.218000000    -1.767000000
C    -3.869000000    -2.405000000    -2.812000000
H    -4.303000000    -1.436000000    -2.576000000
C    -2.523000000    -4.329000000    -2.126000000
H    -2.053000000    -4.938000000    -1.358000000
O    -4.549000000    -1.856000000    -0.190000000
H    -2.440000000    -2.116000000    -0.128000000
C    -3.097000000    -2.688000000     2.872000000
C    -4.473000000    -2.084000000     2.702000000
H    -4.973000000    -1.858000000     3.646000000
H    -5.172000000    -2.827000000     2.313000000
C    -4.459000000    -0.796000000     1.894000000
C    -4.209000000     0.402000000     2.567000000
H    -4.119000000     0.267000000     3.642000000
C    -4.524000000    -0.734000000     0.476000000
C    -4.378000000     0.471000000    -0.215000000
H    -4.325000000     0.566000000    -1.296000000
C    -4.185000000     1.631000000     0.509000000
O    -4.006000000     2.752000000    -0.184000000
C    -2.686000000     3.209000000    -0.359000000
C    -2.392000000     3.585000000    -1.825000000
C    -2.772000000     2.800000000    -2.856000000
H    -3.394000000     1.919000000    -2.718000000
C    -1.519000000     4.635000000    -2.022000000
H    -1.166000000     5.229000000    -1.183000000
O    -2.458000000     4.273000000     0.572000000
H    -2.043000000     2.381000000    -0.026000000
C    -4.124000000     1.656000000     1.927000000
C    -3.827000000     2.938000000     2.766000000
H    -4.244000000     2.842000000     3.771000000
H    -4.433000000     3.747000000     2.354000000
C    -2.381000000     3.308000000     2.779000000
C    -1.776000000     4.038000000     1.739000000
C    -0.413000000     4.310000000     1.715000000
H     0.050000000     4.614000000     0.780000000
C     0.387000000     3.814000000     2.759000000
O     1.740000000     3.991000000     2.598000000
C     2.443000000     2.742000000     2.373000000
H     1.743000000     2.080000000     1.842000000
C     3.461000000     2.838000000     1.247000000
C     4.730000000     2.128000000     1.288000000
H     4.913000000     1.486000000     2.147000000
C     3.183000000     3.698000000     0.136000000
H     2.277000000     4.296000000     0.101000000
C     4.115000000     3.743000000    -0.872000000
O     3.853000000     4.578000000    -1.900000000
C     5.297000000     3.039000000    -0.790000000
H     6.121000000     3.079000000    -1.498000000
C     5.640000000     2.199000000     0.276000000
O     6.848000000     1.586000000     0.365000000
C     7.085000000     0.384000000     0.901000000
C     6.602000000    -0.755000000     0.241000000
H     6.001000000    -0.650000000    -0.659000000
C     7.518000000     0.225000000     2.211000000
H     7.919000000     1.077000000     2.755000000
C     7.585000000    -1.052000000     2.788000000
H     8.054000000    -1.224000000     3.754000000
C     7.081000000    -2.139000000     2.151000000
H     7.047000000    -3.092000000     2.673000000
C     6.572000000    -1.999000000     0.859000000
O     6.108000000    -3.024000000     0.131000000
C     4.792000000    -3.343000000     0.028000000
C     4.314000000    -3.917000000    -1.166000000
H     5.068000000    -4.066000000    -1.934000000
C     2.997000000    -4.212000000    -1.288000000
O     2.581000000    -5.019000000    -2.377000000
C     1.578000000    -5.920000000    -2.449000000
C     0.409000000    -5.452000000    -3.111000000
H     0.431000000    -4.460000000    -3.555000000
C     1.576000000    -7.102000000    -1.740000000
H     2.447000000    -7.259000000    -1.109000000
C     0.447000000    -8.002000000    -1.878000000
H     0.529000000    -8.913000000    -1.290000000
C    -0.674000000    -7.598000000    -2.520000000
H    -1.595000000    -8.175000000    -2.509000000
C    -0.671000000    -6.326000000    -3.205000000
O    -1.813000000    -5.934000000    -3.816000000
C    -2.493000000    -4.760000000    -3.492000000
C    -3.056000000    -4.004000000    -4.487000000
H    -2.854000000    -4.413000000    -5.474000000
C    -3.742000000    -2.840000000    -4.166000000
O    -4.261000000    -2.105000000    -5.174000000
C    -4.556000000    -0.749000000    -5.195000000
C    -3.550000000     0.222000000    -5.146000000
H    -2.501000000    -0.052000000    -5.076000000
C    -5.866000000    -0.377000000    -5.551000000
H    -6.576000000    -1.178000000    -5.738000000
C    -6.163000000     1.005000000    -5.639000000
H    -7.179000000     1.288000000    -5.905000000
C    -5.142000000     1.962000000    -5.587000000
H    -5.239000000     3.023000000    -5.803000000
C    -3.850000000     1.517000000    -5.286000000
O    -2.764000000     2.386000000    -5.295000000
C    -2.406000000     3.077000000    -4.173000000
C    -1.661000000     4.215000000    -4.445000000
H    -1.280000000     4.472000000    -5.430000000
C    -1.154000000     4.987000000    -3.368000000
O    -0.261000000     6.016000000    -3.702000000
C     0.839000000     6.253000000    -2.929000000
C     1.041000000     7.524000000    -2.487000000
H     0.270000000     8.222000000    -2.802000000
C     2.121000000     7.826000000    -1.645000000
H     2.247000000     8.821000000    -1.227000000
C     3.102000000     6.840000000    -1.461000000
H     4.009000000     6.997000000    -0.882000000
C     2.885000000     5.530000000    -1.961000000
C     1.756000000     5.234000000    -2.686000000
H     1.553000000     4.246000000    -3.090000000
O     8.205000000    -2.373000000    -3.616000000
H     8.226000000    -1.477000000    -3.281000000
H     7.474000000    -2.381000000    -4.234000000
O     2.797000000     0.212000000    -6.150000000
H     2.972000000    -0.654000000    -5.780000000
H     3.209000000     0.821000000    -5.538000000
O     0.351000000     1.274000000    -6.104000000
H     0.142000000     1.290000000    -5.170000000
H     1.118000000     0.705000000    -6.168000000
O     4.217000000    -3.923000000    -7.632000000
H     3.553000000    -3.672000000    -8.273000000
H     3.761000000    -3.896000000    -6.791000000
O     2.343000000    -3.943000000    -5.708000000
H     2.292000000    -3.068000000    -5.322000000
H     1.465000000    -4.103000000    -6.055000000
O    -2.050000000    -2.645000000    -7.342000000
H    -1.328000000    -2.594000000    -6.716000000
H    -2.374000000    -1.747000000    -7.409000000
O     0.032000000    -2.087000000    -5.618000000
H     0.795000000    -1.863000000    -5.084000000
H     0.314000000    -1.923000000    -6.518000000
O     3.411000000     2.681000000    -4.339000000
H     4.226000000     3.181000000    -4.385000000
H     2.787000000     3.193000000    -4.854000000
O     5.660000000    -4.864000000    -4.156000000
H     5.738000000    -3.983000000    -4.522000000
H     4.767000000    -5.134000000    -4.371000000
O     0.614000000     1.735000000    -3.366000000
H     0.698000000     1.163000000    -2.603000000
H     1.475000000     2.145000000    -3.454000000
O     5.844000000     0.780000000    -3.083000000
H     5.106000000     1.384000000    -3.165000000
H     5.437000000    -0.077000000    -2.952000000
O     5.814000000    -2.191000000    -5.028000000
H     5.136000000    -1.772000000    -4.499000000
H     5.998000000    -1.561000000    -5.725000000
O     1.976000000     1.193000000    -8.657000000
H     1.161000000     1.458000000    -8.231000000
H     2.449000000     0.703000000    -7.984000000
O     0.978000000    -2.041000000    -8.119000000
H     1.310000000    -1.639000000    -8.922000000
H     0.488000000    -2.806000000    -8.419000000
O     6.764000000    -2.963000000    -7.830000000
H     5.931000000    -3.366000000    -7.584000000
H     6.651000000    -2.035000000    -7.623000000
O     8.456000000     0.251000000    -3.235000000
H     8.771000000     0.815000000    -3.941000000
H     7.525000000     0.462000000    -3.157000000
O     6.725000000    -6.311000000    -2.031000000
H     7.078000000    -5.573000000    -1.534000000
H     6.420000000    -5.923000000    -2.851000000
O     6.729000000    -0.344000000    -7.104000000
H     7.208000000    -0.184000000    -7.917000000
H     6.730000000     0.501000000    -6.655000000
O     3.272000000    -6.508000000    -5.300000000
H     2.927000000    -5.628000000    -5.452000000
H     2.509000000    -7.023000000    -5.040000000
