201
-1225.44461
C     2.003000000    -4.569000000     0.030000000
H     0.935000000    -4.671000000    -0.143000000
C     2.473000000    -3.824000000     1.117000000
C     3.827000000    -3.680000000     1.313000000
H     4.221000000    -3.225000000     2.218000000
C     1.382000000    -3.150000000     1.968000000
O     0.237000000    -3.914000000     1.841000000
H     1.248000000    -2.157000000     1.516000000
O     1.892000000    -3.195000000     3.301000000
C     1.637000000    -2.026000000     4.019000000
C     2.605000000    -1.008000000     3.902000000
H     3.523000000    -1.114000000     3.330000000
C     2.204000000     0.270000000     4.322000000
O     2.957000000     1.357000000     3.877000000
C     0.961000000     0.505000000     4.887000000
C     0.460000000     1.926000000     5.204000000
H    -0.323000000     1.934000000     5.965000000
C    -0.148000000     2.574000000     3.937000000
C    -1.521000000     2.566000000     3.859000000
H    -2.113000000     2.082000000     4.631000000
H     1.284000000     2.598000000     5.451000000
C     0.020000000    -0.534000000     5.066000000
H    -0.947000000    -0.350000000     5.528000000
C     0.317000000    -1.812000000     4.553000000
C    -0.741000000    -2.840000000     4.475000000
H    -1.303000000    -2.815000000     5.411000000
H    -0.307000000    -3.832000000     4.616000000
C    -1.564000000    -2.800000000     3.177000000
C    -2.792000000    -2.177000000     3.232000000
H    -3.039000000    -1.654000000     4.152000000
C    -1.070000000    -3.408000000     1.958000000
C    -1.918000000    -3.388000000     0.848000000
H    -1.455000000    -3.804000000    -0.043000000
C    -3.215000000    -2.863000000     0.957000000
O    -4.050000000    -2.927000000    -0.128000000
C    -4.023000000    -1.864000000    -1.070000000
C    -3.729000000    -2.304000000    -2.499000000
C    -4.090000000    -1.379000000    -3.498000000
H    -4.743000000    -0.545000000    -3.256000000
C    -2.921000000    -3.361000000    -2.804000000
H    -2.593000000    -4.024000000    -2.007000000
O    -5.123000000    -0.955000000    -0.833000000
H    -3.068000000    -1.363000000    -0.856000000
C    -3.649000000    -2.192000000     2.129000000
C    -5.010000000    -1.567000000     2.044000000
H    -5.382000000    -1.373000000     3.052000000
H    -5.741000000    -2.186000000     1.518000000
C    -4.959000000    -0.126000000     1.430000000
C    -4.475000000     0.911000000     2.245000000
H    -4.226000000     0.710000000     3.284000000
C    -4.959000000     0.121000000     0.034000000
C    -4.651000000     1.383000000    -0.486000000
H    -4.600000000     1.515000000    -1.564000000
C    -4.341000000     2.421000000     0.343000000
O    -3.799000000     3.520000000    -0.244000000
C    -2.379000000     3.605000000    -0.410000000
C    -1.934000000     4.038000000    -1.827000000
C    -2.743000000     3.625000000    -2.983000000
H    -3.621000000     3.008000000    -2.813000000
C    -0.654000000     4.533000000    -2.077000000
H     0.025000000     4.696000000    -1.244000000
O    -1.796000000     4.447000000     0.578000000
H    -2.114000000     2.560000000    -0.189000000
C    -4.179000000     2.196000000     1.730000000
C    -3.667000000     3.262000000     2.645000000
H    -4.122000000     3.244000000     3.638000000
H    -4.005000000     4.248000000     2.317000000
C    -2.119000000     3.161000000     2.758000000
C    -1.317000000     3.898000000     1.809000000
C     0.044000000     4.019000000     2.000000000
H     0.743000000     4.501000000     1.321000000
C     0.671000000     3.306000000     3.037000000
O     2.042000000     3.122000000     2.915000000
C     2.649000000     1.905000000     2.590000000
H     1.850000000     1.336000000     2.092000000
C     3.845000000     2.098000000     1.735000000
C     5.049000000     1.375000000     1.961000000
H     5.030000000     0.641000000     2.762000000
C     3.845000000     3.038000000     0.630000000
H     2.936000000     3.592000000     0.412000000
C     4.988000000     3.221000000    -0.158000000
O     5.091000000     4.102000000    -1.237000000
C     6.105000000     2.389000000     0.018000000
H     7.027000000     2.399000000    -0.557000000
C     6.054000000     1.396000000     1.024000000
O     7.135000000     0.553000000     1.167000000
C     7.112000000    -0.752000000     1.647000000
C     6.681000000    -1.816000000     0.853000000
H     6.295000000    -1.546000000    -0.127000000
C     7.695000000    -0.989000000     2.904000000
H     8.091000000    -0.210000000     3.551000000
C     7.635000000    -2.284000000     3.426000000
H     8.008000000    -2.532000000     4.416000000
C     7.093000000    -3.307000000     2.682000000
H     6.978000000    -4.272000000     3.170000000
C     6.620000000    -3.046000000     1.404000000
O     6.129000000    -4.080000000     0.690000000
C     4.740000000    -4.300000000     0.492000000
C     4.230000000    -5.083000000    -0.597000000
H     4.908000000    -5.486000000    -1.345000000
C     2.863000000    -5.261000000    -0.807000000
O     2.368000000    -6.076000000    -1.868000000
C     1.010000000    -6.096000000    -2.208000000
C     0.471000000    -5.176000000    -3.112000000
H     1.162000000    -4.434000000    -3.505000000
C     0.269000000    -7.174000000    -1.722000000
H     0.647000000    -7.917000000    -1.025000000
C    -0.994000000    -7.414000000    -2.214000000
H    -1.495000000    -8.326000000    -1.902000000
C    -1.630000000    -6.418000000    -2.988000000
H    -2.580000000    -6.573000000    -3.493000000
C    -0.906000000    -5.320000000    -3.412000000
O    -1.462000000    -4.520000000    -4.413000000
C    -2.364000000    -3.512000000    -4.118000000
C    -2.934000000    -2.720000000    -5.121000000
H    -2.677000000    -2.844000000    -6.170000000
C    -3.850000000    -1.713000000    -4.819000000
O    -4.261000000    -0.984000000    -5.866000000
C    -4.615000000     0.367000000    -5.690000000
C    -3.630000000     1.339000000    -5.683000000
H    -2.583000000     1.113000000    -5.870000000
C    -5.923000000     0.740000000    -5.470000000
H    -6.632000000    -0.076000000    -5.362000000
C    -6.256000000     2.071000000    -5.346000000
H    -7.300000000     2.295000000    -5.143000000
C    -5.276000000     3.064000000    -5.431000000
H    -5.497000000     4.116000000    -5.273000000
C    -3.964000000     2.685000000    -5.471000000
O    -2.973000000     3.659000000    -5.384000000
C    -2.269000000     3.914000000    -4.273000000
C    -1.094000000     4.622000000    -4.473000000
H    -0.696000000     4.856000000    -5.458000000
C    -0.288000000     4.938000000    -3.401000000
O     1.001000000     5.376000000    -3.546000000
C     1.956000000     5.708000000    -2.558000000
C     1.981000000     6.931000000    -1.918000000
H     1.189000000     7.629000000    -2.179000000
C     2.986000000     7.241000000    -1.068000000
H     2.977000000     8.165000000    -0.495000000
C     4.058000000     6.279000000    -0.830000000
H     4.949000000     6.490000000    -0.245000000
C     4.102000000     5.068000000    -1.493000000
C     2.974000000     4.795000000    -2.323000000
H     2.931000000     3.902000000    -2.941000000
O     4.039000000    -0.306000000    -5.581000000
H     3.385000000     0.260000000    -5.991000000
H     3.602000000    -1.153000000    -5.495000000
O     4.093000000    -2.998000000    -7.361000000
H     3.358000000    -2.822000000    -6.774000000
H     4.677000000    -2.249000000    -7.245000000
O     4.520000000    -3.555000000    -3.969000000
H     3.700000000    -3.251000000    -4.357000000
H     5.011000000    -2.753000000    -3.789000000
O    -0.021000000    -0.517000000    -8.120000000
H    -0.961000000    -0.367000000    -8.016000000
H     0.211000000    -1.099000000    -7.396000000
O     2.014000000    -6.535000000    -8.087000000
H     1.747000000    -6.134000000    -7.260000000
H     2.850000000    -6.119000000    -8.297000000
O    -0.118000000     2.643000000    -6.940000000
H    -0.508000000     2.977000000    -7.748000000
H    -0.566000000     3.120000000    -6.242000000
O    -0.051000000    -5.514000000    -9.964000000
H     0.053000000    -5.124000000    -9.096000000
H     0.789000000    -5.362000000   -10.397000000
O     7.636000000    -3.744000000    -5.420000000
H     7.488000000    -2.877000000    -5.797000000
H     6.783000000    -4.002000000    -5.071000000
O     0.025000000    -2.149000000   -11.718000000
H     0.382000000    -1.767000000   -10.916000000
H    -0.550000000    -2.851000000   -11.415000000
O     4.061000000     1.293000000    -8.564000000
H     3.375000000     1.194000000    -7.905000000
H     4.875000000     1.313000000    -8.061000000
O     2.070000000     0.877000000    -6.904000000
H     1.408000000     1.558000000    -7.021000000
H     1.622000000     0.064000000    -7.138000000
O     5.046000000    -5.184000000    -8.276000000
H     4.636000000    -4.454000000    -7.813000000
H     5.959000000    -4.917000000    -8.383000000
O     6.161000000     2.494000000    -3.817000000
H     5.601000000     1.806000000    -3.457000000
H     5.559000000     3.209000000    -4.024000000
O     0.108000000    -4.394000000    -7.274000000
H     0.385000000    -3.701000000    -6.674000000
H    -0.848000000    -4.385000000    -7.226000000
O     4.710000000    -6.169000000    -4.651000000
H     3.924000000    -6.682000000    -4.464000000
H     4.486000000    -5.280000000    -4.377000000
O     2.311000000    -0.300000000    -9.893000000
H     1.400000000    -0.150000000    -9.641000000
H     2.787000000     0.443000000    -9.521000000
O     3.806000000    -2.535000000   -10.214000000
H     4.061000000    -2.696000000    -9.305000000
H     3.200000000    -1.796000000   -10.165000000
O     6.585000000    -1.009000000    -5.395000000
H     6.765000000    -0.881000000    -6.326000000
H     5.724000000    -0.613000000    -5.260000000
O     4.722000000     0.515000000    -2.091000000
H     3.828000000     0.228000000    -2.277000000
H     4.817000000     0.408000000    -1.145000000
