201
-1251.22729
C     1.352000000    -5.461000000    -0.420000000
H     0.302000000    -5.717000000    -0.309000000
C     1.933000000    -4.696000000     0.583000000
C     3.318000000    -4.491000000     0.540000000
H     3.722000000    -3.828000000     1.301000000
C     1.106000000    -4.001000000     1.679000000
O    -0.073000000    -4.745000000     1.976000000
H     0.789000000    -3.063000000     1.200000000
O     1.818000000    -3.819000000     2.942000000
C     1.684000000    -2.654000000     3.571000000
C     2.673000000    -1.698000000     3.421000000
H     3.491000000    -1.870000000     2.726000000
C     2.483000000    -0.464000000     4.030000000
O     3.419000000     0.539000000     3.668000000
C     1.385000000    -0.130000000     4.827000000
C     1.230000000     1.331000000     5.355000000
H     0.840000000     1.322000000     6.375000000
C     0.422000000     2.181000000     4.352000000
C    -0.948000000     2.248000000     4.315000000
H    -1.584000000     1.740000000     5.035000000
H     2.265000000     1.666000000     5.450000000
C     0.429000000    -1.130000000     4.986000000
H    -0.405000000    -0.834000000     5.617000000
C     0.546000000    -2.425000000     4.414000000
C    -0.526000000    -3.534000000     4.480000000
H    -1.119000000    -3.285000000     5.363000000
H    -0.077000000    -4.524000000     4.589000000
C    -1.492000000    -3.457000000     3.293000000
C    -2.629000000    -2.667000000     3.374000000
H    -2.895000000    -2.247000000     4.341000000
C    -1.170000000    -4.027000000     2.088000000
C    -1.971000000    -3.814000000     0.976000000
H    -1.653000000    -4.233000000     0.025000000
C    -3.102000000    -2.986000000     1.035000000
O    -3.838000000    -2.768000000    -0.119000000
C    -3.684000000    -1.485000000    -0.789000000
C    -3.581000000    -1.638000000    -2.311000000
C    -4.200000000    -0.771000000    -3.219000000
H    -4.835000000     0.054000000    -2.908000000
C    -2.824000000    -2.775000000    -2.769000000
H    -2.354000000    -3.472000000    -2.080000000
O    -4.839000000    -0.757000000    -0.422000000
H    -2.718000000    -1.045000000    -0.500000000
C    -3.425000000    -2.379000000     2.273000000
C    -4.753000000    -1.597000000     2.465000000
H    -5.004000000    -1.626000000     3.527000000
H    -5.627000000    -2.032000000     1.977000000
C    -4.525000000    -0.191000000     1.958000000
C    -4.195000000     0.786000000     2.860000000
H    -4.015000000     0.566000000     3.909000000
C    -4.582000000     0.153000000     0.588000000
C    -4.265000000     1.420000000     0.162000000
H    -4.114000000     1.714000000    -0.874000000
C    -3.748000000     2.349000000     1.023000000
O    -3.253000000     3.484000000     0.412000000
C    -1.904000000     3.636000000     0.196000000
C    -1.443000000     4.295000000    -1.143000000
C    -2.104000000     3.871000000    -2.308000000
H    -2.954000000     3.204000000    -2.187000000
C    -0.360000000     5.141000000    -1.286000000
H     0.170000000     5.353000000    -0.360000000
O    -1.358000000     4.401000000     1.319000000
H    -1.463000000     2.632000000     0.276000000
C    -3.716000000     2.069000000     2.400000000
C    -3.108000000     3.081000000     3.323000000
H    -3.532000000     2.961000000     4.323000000
H    -3.484000000     4.075000000     3.071000000
C    -1.601000000     3.103000000     3.347000000
C    -0.829000000     3.847000000     2.431000000
C     0.519000000     3.813000000     2.522000000
H     1.135000000     4.327000000     1.789000000
C     1.128000000     2.902000000     3.382000000
O     2.453000000     2.758000000     3.366000000
C     2.938000000     1.536000000     2.692000000
H     2.086000000     1.083000000     2.164000000
C     3.969000000     1.910000000     1.691000000
C     4.543000000     0.873000000     0.998000000
H     4.138000000    -0.128000000     1.127000000
C     4.176000000     3.229000000     1.255000000
H     3.550000000     4.036000000     1.625000000
C     5.075000000     3.448000000     0.241000000
O     5.080000000     4.666000000    -0.391000000
C     5.762000000     2.372000000    -0.377000000
H     6.409000000     2.517000000    -1.238000000
C     5.478000000     1.066000000     0.016000000
O     6.030000000    -0.062000000    -0.662000000
C     6.298000000    -1.250000000    -0.056000000
C     5.884000000    -2.490000000    -0.636000000
H     5.421000000    -2.477000000    -1.620000000
C     6.837000000    -1.310000000     1.218000000
H     7.241000000    -0.409000000     1.671000000
C     7.006000000    -2.453000000     1.950000000
H     7.311000000    -2.366000000     2.989000000
C     6.547000000    -3.668000000     1.425000000
H     6.508000000    -4.573000000     2.026000000
C     5.981000000    -3.649000000     0.106000000
O     5.419000000    -4.769000000    -0.463000000
C     4.066000000    -4.927000000    -0.496000000
C     3.481000000    -5.626000000    -1.564000000
H     4.097000000    -5.813000000    -2.440000000
C     2.127000000    -5.835000000    -1.567000000
O     1.575000000    -6.453000000    -2.723000000
C     0.201000000    -6.301000000    -2.974000000
C    -0.246000000    -5.237000000    -3.760000000
H     0.447000000    -4.597000000    -4.299000000
C    -0.757000000    -7.200000000    -2.428000000
H    -0.414000000    -7.987000000    -1.762000000
C    -2.157000000    -7.014000000    -2.708000000
H    -2.935000000    -7.570000000    -2.192000000
C    -2.552000000    -5.876000000    -3.345000000
H    -3.587000000    -5.562000000    -3.454000000
C    -1.635000000    -5.045000000    -3.970000000
O    -2.119000000    -3.981000000    -4.721000000
C    -2.790000000    -2.951000000    -4.158000000
C    -3.476000000    -2.115000000    -5.019000000
H    -3.434000000    -2.343000000    -6.081000000
C    -4.190000000    -0.988000000    -4.558000000
O    -4.878000000    -0.143000000    -5.424000000
C    -4.824000000     1.212000000    -5.297000000
C    -3.639000000     1.885000000    -5.006000000
H    -2.744000000     1.272000000    -4.924000000
C    -5.901000000     1.983000000    -5.749000000
H    -6.765000000     1.528000000    -6.228000000
C    -5.757000000     3.394000000    -5.686000000
H    -6.499000000     4.029000000    -6.163000000
C    -4.586000000     4.001000000    -5.225000000
H    -4.541000000     5.085000000    -5.281000000
C    -3.474000000     3.259000000    -4.912000000
O    -2.241000000     3.771000000    -4.785000000
C    -1.739000000     4.278000000    -3.574000000
C    -0.688000000     5.210000000    -3.663000000
H    -0.246000000     5.506000000    -4.611000000
C     0.026000000     5.539000000    -2.534000000
O     1.188000000     6.235000000    -2.706000000
C     2.160000000     6.448000000    -1.727000000
C     2.408000000     7.753000000    -1.332000000
H     1.863000000     8.638000000    -1.651000000
C     3.492000000     7.996000000    -0.460000000
H     3.569000000     8.993000000    -0.035000000
C     4.399000000     6.977000000    -0.140000000
H     5.226000000     7.267000000     0.503000000
C     4.128000000     5.687000000    -0.606000000
C     3.017000000     5.388000000    -1.375000000
H     2.862000000     4.380000000    -1.753000000
O     3.086000000     0.646000000    -5.076000000
H     2.664000000     0.571000000    -4.221000000
H     4.000000000     0.413000000    -4.914000000
O     0.840000000    -8.367000000    -5.167000000
H     1.752000000    -8.180000000    -5.391000000
H     0.605000000    -7.689000000    -4.534000000
O     2.192000000    -0.615000000    -7.403000000
H     1.723000000    -1.162000000    -6.773000000
H     2.548000000     0.103000000    -6.878000000
O     5.489000000    -2.934000000    -5.739000000
H     4.729000000    -3.061000000    -5.171000000
H     5.899000000    -3.797000000    -5.787000000
O    -0.846000000    -0.033000000    -6.688000000
H    -1.549000000    -0.342000000    -7.260000000
H    -0.489000000    -0.830000000    -6.295000000
O     2.278000000    -5.102000000    -6.831000000
H     2.427000000    -4.350000000    -6.258000000
H     2.047000000    -4.716000000    -7.676000000
O     1.691000000     4.010000000    -7.420000000
H     1.064000000     3.736000000    -8.088000000
H     1.405000000     3.561000000    -6.624000000
O     0.749000000    -7.617000000    -8.092000000
H     0.286000000    -6.842000000    -8.408000000
H     1.421000000    -7.272000000    -7.504000000
O    -1.606000000    -4.351000000    -9.614000000
H    -1.373000000    -4.070000000    -8.729000000
H    -1.349000000    -3.619000000   -10.174000000
O     5.654000000    -0.337000000    -4.582000000
H     5.781000000    -1.088000000    -5.161000000
H     6.339000000    -0.426000000    -3.919000000
O     3.681000000     3.326000000    -4.255000000
H     2.993000000     2.682000000    -4.085000000
H     3.214000000     4.095000000    -4.583000000
O     6.869000000     1.950000000    -5.918000000
H     6.595000000     2.732000000    -5.438000000
H     6.176000000     1.312000000    -5.750000000
O     0.694000000     1.973000000    -5.752000000
H     0.015000000     1.376000000    -6.067000000
H     1.443000000     1.407000000    -5.567000000
O    -0.708000000    -3.640000000    -6.978000000
H    -1.277000000    -3.885000000    -6.248000000
H    -0.109000000    -2.992000000    -6.607000000
O     0.506000000    -0.345000000    -9.487000000
H     0.815000000    -0.553000000    -8.606000000
H     1.265000000    -0.499000000   -10.050000000
O     1.406000000    -3.821000000    -9.187000000
H     1.474000000    -3.432000000   -10.059000000
H     0.472000000    -3.790000000    -8.983000000
O     4.660000000    -1.291000000    -7.782000000
H     4.858000000    -2.008000000    -7.180000000
H     3.713000000    -1.175000000    -7.713000000
O     1.514000000     2.156000000    -2.869000000
H     0.923000000     2.291000000    -3.610000000
H     1.247000000     1.314000000    -2.500000000
O     3.270000000    -7.270000000    -5.559000000
H     2.856000000    -6.438000000    -5.788000000
H     3.942000000    -7.035000000    -4.920000000
