201
-1255.17231
C     1.038000000    -5.512000000     0.140000000
H     0.015000000    -5.750000000     0.421000000
C     1.714000000    -4.567000000     0.925000000
C     3.014000000    -4.303000000     0.658000000
H     3.508000000    -3.612000000     1.336000000
C     0.900000000    -3.729000000     1.951000000
O    -0.305000000    -4.436000000     2.443000000
H     0.579000000    -2.808000000     1.443000000
O     1.735000000    -3.419000000     3.061000000
C     1.598000000    -2.138000000     3.555000000
C     2.676000000    -1.279000000     3.274000000
H     3.542000000    -1.539000000     2.670000000
C     2.681000000     0.030000000     3.816000000
O     3.637000000     0.902000000     3.332000000
C     1.545000000     0.468000000     4.551000000
C     1.440000000     1.827000000     5.108000000
H     0.871000000     1.857000000     6.040000000
C     0.745000000     2.725000000     4.090000000
C    -0.620000000     2.983000000     4.189000000
H    -1.174000000     2.477000000     4.975000000
H     2.405000000     2.287000000     5.329000000
C     0.574000000    -0.452000000     4.920000000
H    -0.232000000    -0.194000000     5.603000000
C     0.602000000    -1.757000000     4.415000000
C    -0.532000000    -2.586000000     4.819000000
H    -0.931000000    -2.074000000     5.698000000
H     0.035000000    -3.470000000     5.118000000
C    -1.615000000    -2.725000000     3.757000000
C    -2.728000000    -1.894000000     3.777000000
H    -2.785000000    -1.148000000     4.565000000
C    -1.463000000    -3.681000000     2.693000000
C    -2.447000000    -3.752000000     1.728000000
H    -2.331000000    -4.386000000     0.853000000
C    -3.454000000    -2.786000000     1.745000000
O    -4.155000000    -2.685000000     0.583000000
C    -3.905000000    -1.521000000    -0.249000000
C    -3.861000000    -1.960000000    -1.729000000
C    -4.501000000    -1.122000000    -2.673000000
H    -4.789000000    -0.094000000    -2.469000000
C    -3.126000000    -3.079000000    -2.189000000
H    -2.703000000    -3.737000000    -1.434000000
O    -4.876000000    -0.463000000    -0.164000000
H    -2.923000000    -1.156000000     0.085000000
C    -3.720000000    -1.905000000     2.834000000
C    -4.867000000    -0.957000000     2.790000000
H    -5.151000000    -0.774000000     3.828000000
H    -5.731000000    -1.407000000     2.297000000
C    -4.396000000     0.385000000     2.073000000
C    -3.891000000     1.388000000     2.882000000
H    -3.901000000     1.228000000     3.957000000
C    -4.458000000     0.547000000     0.662000000
C    -4.008000000     1.715000000     0.109000000
H    -3.986000000     1.808000000    -0.974000000
C    -3.555000000     2.739000000     0.921000000
O    -3.117000000     3.893000000     0.310000000
C    -1.722000000     4.005000000     0.109000000
C    -1.236000000     4.368000000    -1.319000000
C    -1.757000000     3.639000000    -2.390000000
H    -2.397000000     2.795000000    -2.145000000
C    -0.310000000     5.356000000    -1.528000000
H     0.173000000     5.892000000    -0.715000000
O    -1.199000000     4.866000000     1.145000000
H    -1.219000000     3.046000000     0.299000000
C    -3.464000000     2.574000000     2.284000000
C    -2.845000000     3.676000000     3.174000000
H    -3.171000000     3.354000000     4.165000000
H    -3.137000000     4.682000000     2.867000000
C    -1.309000000     3.609000000     3.139000000
C    -0.520000000     4.242000000     2.156000000
C     0.917000000     4.182000000     2.162000000
H     1.552000000     4.606000000     1.388000000
C     1.480000000     3.359000000     3.082000000
O     2.834000000     3.060000000     2.883000000
C     3.129000000     1.789000000     2.266000000
H     2.193000000     1.358000000     1.882000000
C     4.042000000     1.868000000     1.096000000
C     4.754000000     0.741000000     0.617000000
H     4.659000000    -0.176000000     1.194000000
C     4.060000000     3.020000000     0.313000000
H     3.496000000     3.899000000     0.615000000
C     4.827000000     3.102000000    -0.907000000
O     4.857000000     4.218000000    -1.752000000
C     5.511000000     1.963000000    -1.268000000
H     6.052000000     2.088000000    -2.202000000
C     5.566000000     0.758000000    -0.497000000
O     6.192000000    -0.378000000    -1.049000000
C     6.355000000    -1.574000000    -0.409000000
C     5.545000000    -2.660000000    -0.790000000
H     4.693000000    -2.473000000    -1.438000000
C     7.391000000    -1.721000000     0.558000000
H     8.092000000    -0.911000000     0.741000000
C     7.480000000    -2.991000000     1.143000000
H     8.249000000    -3.115000000     1.901000000
C     6.657000000    -4.057000000     0.820000000
H     6.666000000    -5.019000000     1.326000000
C     5.681000000    -3.852000000    -0.185000000
O     4.991000000    -4.981000000    -0.568000000
C     3.679000000    -5.016000000    -0.362000000
C     3.003000000    -5.933000000    -1.178000000
H     3.507000000    -6.399000000    -2.022000000
C     1.608000000    -6.184000000    -0.959000000
O     0.926000000    -7.175000000    -1.634000000
C    -0.410000000    -6.991000000    -2.147000000
C    -0.815000000    -5.834000000    -2.771000000
H    -0.160000000    -4.967000000    -2.763000000
C    -1.288000000    -8.100000000    -2.131000000
H    -0.881000000    -9.074000000    -1.871000000
C    -2.602000000    -7.970000000    -2.621000000
H    -3.255000000    -8.838000000    -2.581000000
C    -3.028000000    -6.762000000    -3.249000000
H    -4.032000000    -6.708000000    -3.661000000
C    -2.119000000    -5.735000000    -3.291000000
O    -2.527000000    -4.590000000    -4.029000000
C    -3.035000000    -3.358000000    -3.558000000
C    -3.722000000    -2.566000000    -4.475000000
H    -3.400000000    -2.691000000    -5.506000000
C    -4.300000000    -1.350000000    -4.052000000
O    -4.789000000    -0.487000000    -5.005000000
C    -4.647000000     0.882000000    -4.916000000
C    -3.388000000     1.369000000    -4.855000000
H    -2.654000000     0.567000000    -4.847000000
C    -5.728000000     1.685000000    -5.185000000
H    -6.724000000     1.280000000    -5.345000000
C    -5.521000000     3.071000000    -5.248000000
H    -6.432000000     3.628000000    -5.451000000
C    -4.249000000     3.578000000    -4.969000000
H    -4.132000000     4.654000000    -4.870000000
C    -3.168000000     2.708000000    -4.884000000
O    -1.822000000     3.173000000    -4.762000000
C    -1.308000000     3.904000000    -3.712000000
C    -0.437000000     4.958000000    -3.929000000
H    -0.210000000     5.193000000    -4.966000000
C     0.152000000     5.576000000    -2.814000000
O     1.043000000     6.610000000    -3.110000000
C     2.259000000     6.666000000    -2.446000000
C     2.593000000     7.665000000    -1.606000000
H     1.878000000     8.469000000    -1.453000000
C     3.776000000     7.628000000    -0.858000000
H     4.048000000     8.445000000    -0.195000000
C     4.605000000     6.463000000    -0.929000000
H     5.491000000     6.335000000    -0.313000000
C     4.118000000     5.417000000    -1.640000000
C     3.022000000     5.540000000    -2.433000000
H     2.709000000     4.643000000    -2.961000000
O     6.441000000    -3.467000000    -3.942000000
H     7.248000000    -3.416000000    -4.455000000
H     6.450000000    -4.347000000    -3.566000000
O     4.300000000    -0.889000000    -7.053000000
H     4.897000000    -0.148000000    -6.947000000
H     4.348000000    -1.355000000    -6.218000000
O     4.045000000    -5.307000000    -9.901000000
H     3.311000000    -5.446000000    -9.301000000
H     4.568000000    -4.622000000    -9.485000000
O     1.958000000    -2.262000000    -7.427000000
H     1.616000000    -2.373000000    -6.540000000
H     2.675000000    -1.636000000    -7.331000000
O     4.366000000    -3.002000000    -5.296000000
H     3.547000000    -3.301000000    -4.900000000
H     5.004000000    -3.038000000    -4.583000000
O    -1.061000000    -0.604000000    -6.604000000
H    -1.697000000    -0.831000000    -7.282000000
H    -0.696000000    -1.444000000    -6.327000000
O     1.606000000    -5.902000000    -5.794000000
H     2.028000000    -5.297000000    -5.183000000
H     0.692000000    -5.618000000    -5.819000000
O    -0.325000000    -6.655000000    -9.460000000
H     0.394000000    -6.121000000    -9.123000000
H    -0.798000000    -6.073000000   -10.055000000
O     4.050000000     2.620000000    -4.837000000
H     3.233000000     2.324000000    -4.435000000
H     4.038000000     3.571000000    -4.733000000
O    -0.838000000     2.036000000    -8.179000000
H    -1.305000000     1.630000000    -7.448000000
H    -0.178000000     1.389000000    -8.431000000
O     1.132000000     0.718000000    -5.595000000
H     0.244000000     0.478000000    -5.860000000
H     1.635000000    -0.092000000    -5.683000000
O    -1.059000000    -5.242000000    -6.480000000
H    -1.715000000    -5.461000000    -5.818000000
H    -0.821000000    -4.335000000    -6.289000000
O     0.660000000     0.160000000    -9.359000000
H     0.959000000    -0.402000000    -8.643000000
H     1.325000000     0.054000000   -10.039000000
O     1.687000000    -5.134000000    -8.418000000
H     1.469000000    -5.625000000    -7.625000000
H     1.969000000    -4.276000000    -8.099000000
O    -2.494000000    -2.002000000    -8.384000000
H    -3.387000000    -2.292000000    -8.200000000
H    -1.941000000    -2.583000000    -7.861000000
O     5.068000000    -3.506000000    -7.880000000
H     4.507000000    -3.600000000    -7.110000000
H     4.900000000    -2.617000000    -8.191000000
O    -2.233000000    -7.678000000    -7.178000000
H    -1.754000000    -6.853000000    -7.258000000
H    -2.573000000    -7.844000000    -8.057000000
O     2.009000000     1.511000000    -2.993000000
H     1.473000000     1.191000000    -3.719000000
H     2.057000000     0.771000000    -2.387000000
O     1.366000000    -8.916000000    -4.863000000
H     1.621000000    -7.993000000    -4.838000000
H     0.409000000    -8.900000000    -4.872000000
