201
-1244.47859
C     2.142000000    -5.245000000     1.593000000
H     1.126000000    -5.612000000     1.718000000
C     2.489000000    -3.920000000     2.082000000
C     3.665000000    -3.312000000     1.542000000
H     3.916000000    -2.263000000     1.677000000
C     1.510000000    -3.054000000     2.857000000
O     0.565000000    -3.816000000     3.558000000
H     1.081000000    -2.424000000     2.064000000
O     2.238000000    -2.223000000     3.867000000
C     1.737000000    -0.925000000     4.208000000
C     2.454000000     0.160000000     3.765000000
H     3.318000000     0.055000000     3.112000000
C     1.937000000     1.417000000     3.876000000
O     2.666000000     2.438000000     3.385000000
C     0.764000000     1.721000000     4.595000000
C     0.244000000     3.141000000     4.661000000
H    -0.504000000     3.165000000     5.456000000
C    -0.392000000     3.574000000     3.420000000
C    -1.819000000     3.422000000     3.356000000
H    -2.327000000     2.907000000     4.168000000
H     1.033000000     3.872000000     4.851000000
C     0.049000000     0.612000000     5.032000000
H    -0.896000000     0.792000000     5.539000000
C     0.494000000    -0.711000000     4.898000000
C    -0.419000000    -1.811000000     5.451000000
H    -1.012000000    -1.346000000     6.241000000
H     0.213000000    -2.635000000     5.788000000
C    -1.213000000    -2.278000000     4.256000000
C    -2.418000000    -1.755000000     3.938000000
H    -2.947000000    -1.080000000     4.605000000
C    -0.646000000    -3.234000000     3.340000000
C    -1.344000000    -3.601000000     2.168000000
H    -0.834000000    -4.340000000     1.556000000
C    -2.543000000    -3.029000000     1.875000000
O    -3.069000000    -3.313000000     0.650000000
C    -3.044000000    -2.291000000    -0.343000000
C    -2.714000000    -2.863000000    -1.695000000
C    -3.391000000    -2.381000000    -2.876000000
H    -4.200000000    -1.657000000    -2.821000000
C    -1.623000000    -3.695000000    -1.800000000
H    -1.107000000    -3.899000000    -0.866000000
O    -4.366000000    -1.581000000    -0.446000000
H    -2.216000000    -1.608000000    -0.104000000
C    -3.057000000    -2.104000000     2.755000000
C    -4.504000000    -1.522000000     2.557000000
H    -4.832000000    -1.277000000     3.569000000
H    -5.201000000    -2.257000000     2.147000000
C    -4.571000000    -0.248000000     1.642000000
C    -4.462000000     0.971000000     2.257000000
H    -4.346000000     1.075000000     3.333000000
C    -4.563000000    -0.372000000     0.230000000
C    -4.669000000     0.768000000    -0.624000000
H    -4.887000000     0.600000000    -1.676000000
C    -4.579000000     2.009000000     0.039000000
O    -4.208000000     3.104000000    -0.685000000
C    -2.769000000     3.266000000    -0.756000000
C    -2.293000000     3.209000000    -2.156000000
C    -2.981000000     2.597000000    -3.239000000
H    -3.927000000     2.079000000    -3.100000000
C    -0.980000000     3.773000000    -2.434000000
H    -0.389000000     4.044000000    -1.563000000
O    -2.446000000     4.488000000    -0.069000000
H    -2.217000000     2.468000000    -0.239000000
C    -4.401000000     2.071000000     1.436000000
C    -4.033000000     3.388000000     2.074000000
H    -4.424000000     3.468000000     3.091000000
H    -4.440000000     4.235000000     1.517000000
C    -2.534000000     3.717000000     2.163000000
C    -1.861000000     4.233000000     1.117000000
C    -0.468000000     4.430000000     1.182000000
H     0.046000000     4.824000000     0.309000000
C     0.256000000     4.037000000     2.283000000
O     1.640000000     4.151000000     2.330000000
C     2.431000000     2.963000000     2.101000000
H     1.811000000     2.280000000     1.501000000
C     3.611000000     3.329000000     1.220000000
C     4.533000000     2.244000000     0.988000000
H     4.351000000     1.323000000     1.536000000
C     3.635000000     4.492000000     0.459000000
H     2.801000000     5.187000000     0.494000000
C     4.690000000     4.603000000    -0.511000000
O     4.718000000     5.670000000    -1.447000000
C     5.589000000     3.588000000    -0.731000000
H     6.368000000     3.719000000    -1.478000000
C     5.511000000     2.387000000     0.007000000
O     6.298000000     1.234000000    -0.286000000
C     6.443000000     0.118000000     0.468000000
C     5.918000000    -1.040000000    -0.050000000
H     5.348000000    -1.020000000    -0.975000000
C     7.155000000     0.133000000     1.653000000
H     7.447000000     1.090000000     2.077000000
C     7.412000000    -1.116000000     2.342000000
H     8.089000000    -1.133000000     3.191000000
C     6.845000000    -2.312000000     1.817000000
H     7.036000000    -3.225000000     2.374000000
C     6.087000000    -2.267000000     0.621000000
O     5.639000000    -3.437000000     0.074000000
C     4.472000000    -4.068000000     0.644000000
C     4.228000000    -5.424000000     0.316000000
H     4.804000000    -5.973000000    -0.424000000
C     3.008000000    -5.948000000     0.758000000
O     2.609000000    -7.102000000     0.122000000
C     1.435000000    -7.115000000    -0.607000000
C     1.242000000    -6.186000000    -1.614000000
H     2.007000000    -5.509000000    -1.985000000
C     0.437000000    -7.958000000    -0.158000000
H     0.599000000    -8.643000000     0.670000000
C    -0.825000000    -7.883000000    -0.794000000
H    -1.656000000    -8.480000000    -0.428000000
C    -1.037000000    -7.039000000    -1.890000000
H    -2.006000000    -7.164000000    -2.366000000
C    -0.081000000    -6.089000000    -2.260000000
O    -0.344000000    -5.126000000    -3.192000000
C    -1.283000000    -4.176000000    -3.115000000
C    -1.985000000    -3.770000000    -4.249000000
H    -1.860000000    -4.316000000    -5.181000000
C    -3.042000000    -2.878000000    -4.135000000
O    -3.900000000    -2.582000000    -5.223000000
C    -4.234000000    -1.359000000    -5.645000000
C    -3.395000000    -0.222000000    -5.423000000
H    -2.405000000    -0.312000000    -4.984000000
C    -5.526000000    -1.167000000    -6.122000000
H    -6.215000000    -1.997000000    -6.256000000
C    -6.042000000     0.158000000    -6.383000000
H    -7.022000000     0.284000000    -6.838000000
C    -5.190000000     1.235000000    -6.163000000
H    -5.484000000     2.273000000    -6.292000000
C    -3.875000000     1.085000000    -5.734000000
O    -3.071000000     2.234000000    -5.654000000
C    -2.422000000     2.630000000    -4.580000000
C    -1.190000000     3.316000000    -4.771000000
H    -0.767000000     3.142000000    -5.757000000
C    -0.463000000     3.806000000    -3.715000000
O     0.907000000     4.205000000    -3.899000000
C     1.579000000     5.189000000    -3.159000000
C     1.229000000     6.525000000    -3.290000000
H     0.324000000     6.754000000    -3.848000000
C     1.992000000     7.570000000    -2.894000000
H     1.702000000     8.594000000    -3.117000000
C     3.137000000     7.273000000    -2.257000000
H     3.819000000     8.055000000    -1.933000000
C     3.556000000     5.978000000    -2.088000000
C     2.816000000     4.914000000    -2.579000000
H     3.132000000     3.874000000    -2.604000000
O     8.293000000    -2.456000000    -2.409000000
H     7.507000000    -2.601000000    -2.935000000
H     8.173000000    -3.013000000    -1.640000000
O     6.726000000    -1.422000000    -4.755000000
H     6.424000000    -2.026000000    -5.433000000
H     6.046000000    -0.750000000    -4.712000000
O     3.670000000    -2.370000000    -6.536000000
H     3.788000000    -1.542000000    -7.001000000
H     3.002000000    -2.181000000    -5.876000000
O     4.391000000    -0.827000000    -3.664000000
H     3.803000000    -1.541000000    -3.419000000
H     3.858000000    -0.037000000    -3.579000000
O     5.185000000    -3.990000000    -2.703000000
H     4.261000000    -3.746000000    -2.643000000
H     5.461000000    -4.108000000    -1.794000000
O     4.033000000    -0.072000000    -7.941000000
H     4.142000000     0.594000000    -8.621000000
H     3.420000000     0.320000000    -7.319000000
O     1.120000000    -6.815000000    -6.703000000
H     1.772000000    -6.910000000    -7.397000000
H     1.527000000    -6.223000000    -6.071000000
O     1.884000000    -4.208000000    -8.379000000
H     2.622000000    -3.941000000    -7.831000000
H     1.131000000    -3.751000000    -8.005000000
O     0.170000000    -3.476000000    -6.322000000
H     0.193000000    -4.405000000    -6.095000000
H     0.595000000    -3.038000000    -5.585000000
O     3.356000000     2.521000000    -6.403000000
H     2.902000000     3.223000000    -6.870000000
H     2.705000000     1.824000000    -6.328000000
O     0.700000000    -8.824000000    -4.287000000
H     1.596000000    -8.493000000    -4.224000000
H     0.159000000    -8.039000000    -4.367000000
O     3.035000000    -7.661000000    -4.463000000
H     3.897000000    -7.644000000    -4.879000000
H     2.782000000    -6.740000000    -4.397000000
O     2.392000000    -5.040000000    -5.131000000
H     2.407000000    -4.445000000    -4.381000000
H     3.075000000    -4.708000000    -5.714000000
O     2.580000000     1.383000000    -3.494000000
H     2.001000000     1.015000000    -2.827000000
H     2.000000000     1.892000000    -4.060000000
O    -0.751000000    -0.949000000    -7.369000000
H    -0.397000000    -1.796000000    -7.099000000
H    -0.569000000    -0.901000000    -8.307000000
O     4.732000000     3.015000000    -4.356000000
H     4.410000000     2.923000000    -5.252000000
H     4.657000000     2.137000000    -3.983000000
O     5.438000000    -4.523000000    -5.360000000
H     5.482000000    -4.299000000    -4.430000000
H     5.356000000    -3.680000000    -5.806000000
O     1.544000000     0.060000000    -6.102000000
H     0.613000000    -0.072000000    -6.280000000
H     1.696000000    -0.396000000    -5.274000000
O     5.095000000    -7.287000000    -6.162000000
H     5.345000000    -7.443000000    -7.073000000
H     5.360000000    -6.383000000    -5.992000000
