201
-1263.48428
C     2.795000000    -3.035000000     1.877000000
H     1.808000000    -3.095000000     1.425000000
C     2.982000000    -2.341000000     3.122000000
C     4.274000000    -2.082000000     3.517000000
H     4.495000000    -1.440000000     4.366000000
C     1.789000000    -1.548000000     3.716000000
O     0.894000000    -2.465000000     4.325000000
H     1.216000000    -1.144000000     2.868000000
O     2.232000000    -0.500000000     4.600000000
C     1.692000000     0.698000000     4.412000000
C     2.325000000     1.576000000     3.548000000
H     3.338000000     1.282000000     3.286000000
C     1.769000000     2.776000000     3.273000000
O     2.430000000     3.471000000     2.336000000
C     0.504000000     3.143000000     3.771000000
C    -0.148000000     4.487000000     3.353000000
H    -0.796000000     4.866000000     4.146000000
C    -0.960000000     4.239000000     2.091000000
C    -2.284000000     4.020000000     2.158000000
H    -2.841000000     4.050000000     3.091000000
H     0.603000000     5.269000000     3.224000000
C    -0.154000000     2.201000000     4.603000000
H    -1.194000000     2.420000000     4.829000000
C     0.415000000     0.989000000     4.963000000
C    -0.324000000    -0.130000000     5.646000000
H    -0.908000000     0.294000000     6.466000000
H     0.366000000    -0.812000000     6.147000000
C    -1.091000000    -1.088000000     4.716000000
C    -2.360000000    -0.754000000     4.339000000
H    -2.881000000     0.102000000     4.759000000
C    -0.468000000    -2.209000000     4.160000000
C    -1.091000000    -3.041000000     3.262000000
H    -0.499000000    -3.808000000     2.768000000
C    -2.390000000    -2.737000000     2.893000000
O    -2.982000000    -3.474000000     1.897000000
C    -3.046000000    -2.841000000     0.545000000
C    -2.764000000    -3.819000000    -0.635000000
C    -3.364000000    -3.557000000    -1.885000000
H    -4.124000000    -2.780000000    -1.912000000
C    -1.774000000    -4.770000000    -0.477000000
H    -1.292000000    -4.889000000     0.490000000
O    -4.307000000    -2.219000000     0.349000000
H    -2.281000000    -2.051000000     0.514000000
C    -3.086000000    -1.652000000     3.483000000
C    -4.475000000    -1.236000000     3.076000000
H    -4.974000000    -0.604000000     3.814000000
H    -5.123000000    -2.115000000     3.084000000
C    -4.494000000    -0.340000000     1.844000000
C    -4.637000000     1.076000000     1.958000000
H    -4.658000000     1.503000000     2.957000000
C    -4.499000000    -0.883000000     0.583000000
C    -4.646000000    -0.112000000    -0.561000000
H    -4.521000000    -0.462000000    -1.583000000
C    -4.653000000     1.279000000    -0.421000000
O    -4.400000000     2.011000000    -1.534000000
C    -3.016000000     2.302000000    -1.799000000
C    -2.655000000     2.075000000    -3.246000000
C    -3.479000000     1.373000000    -4.082000000
H    -4.474000000     1.012000000    -3.834000000
C    -1.395000000     2.485000000    -3.769000000
H    -0.782000000     3.098000000    -3.113000000
O    -2.941000000     3.756000000    -1.450000000
H    -2.349000000     1.736000000    -1.132000000
C    -4.628000000     1.887000000     0.822000000
C    -4.483000000     3.425000000     0.985000000
H    -4.864000000     3.791000000     1.941000000
H    -5.053000000     3.863000000     0.162000000
C    -3.046000000     3.875000000     0.965000000
C    -2.339000000     3.953000000    -0.265000000
C    -0.972000000     4.317000000    -0.320000000
H    -0.478000000     4.391000000    -1.285000000
C    -0.275000000     4.349000000     0.885000000
O     1.095000000     4.450000000     0.727000000
C     1.937000000     3.348000000     1.013000000
H     1.395000000     2.392000000     0.970000000
C     3.170000000     3.237000000     0.040000000
C     4.288000000     2.437000000     0.395000000
H     4.277000000     1.892000000     1.336000000
C     3.067000000     3.759000000    -1.240000000
H     2.180000000     4.345000000    -1.462000000
C     4.126000000     3.668000000    -2.137000000
O     4.037000000     4.261000000    -3.380000000
C     5.279000000     2.970000000    -1.689000000
H     6.045000000     2.803000000    -2.441000000
C     5.280000000     2.248000000    -0.511000000
O     6.297000000     1.420000000    -0.252000000
C     6.642000000     0.869000000     0.937000000
C     6.429000000    -0.489000000     1.277000000
H     5.868000000    -1.136000000     0.607000000
C     7.321000000     1.718000000     1.709000000
H     7.420000000     2.741000000     1.355000000
C     7.792000000     1.279000000     2.956000000
H     8.283000000     2.009000000     3.595000000
C     7.575000000    -0.018000000     3.399000000
H     7.888000000    -0.415000000     4.361000000
C     6.855000000    -0.879000000     2.580000000
O     6.586000000    -2.119000000     2.979000000
C     5.335000000    -2.635000000     2.800000000
C     5.138000000    -3.449000000     1.663000000
H     6.014000000    -3.789000000     1.118000000
C     3.852000000    -3.689000000     1.227000000
O     3.568000000    -4.383000000     0.067000000
C     2.600000000    -5.424000000     0.197000000
C     1.511000000    -5.516000000    -0.671000000
H     1.363000000    -4.739000000    -1.417000000
C     2.843000000    -6.553000000     1.014000000
H     3.714000000    -6.501000000     1.662000000
C     1.921000000    -7.584000000     1.159000000
H     2.164000000    -8.405000000     1.828000000
C     0.679000000    -7.516000000     0.417000000
H    -0.055000000    -8.315000000     0.486000000
C     0.543000000    -6.509000000    -0.574000000
O    -0.598000000    -6.521000000    -1.367000000
C    -1.514000000    -5.537000000    -1.536000000
C    -2.121000000    -5.400000000    -2.765000000
H    -1.785000000    -5.965000000    -3.631000000
C    -3.050000000    -4.393000000    -2.935000000
O    -3.620000000    -4.274000000    -4.149000000
C    -4.359000000    -3.237000000    -4.716000000
C    -3.743000000    -2.109000000    -5.210000000
H    -2.666000000    -1.962000000    -5.189000000
C    -5.791000000    -3.255000000    -4.832000000
H    -6.322000000    -4.145000000    -4.505000000
C    -6.550000000    -2.163000000    -5.259000000
H    -7.636000000    -2.197000000    -5.279000000
C    -5.857000000    -1.084000000    -5.784000000
H    -6.394000000    -0.251000000    -6.229000000
C    -4.483000000    -1.074000000    -5.752000000
O    -3.884000000     0.073000000    -6.132000000
C    -3.067000000     0.941000000    -5.347000000
C    -1.783000000     1.269000000    -5.851000000
H    -1.596000000     1.018000000    -6.892000000
C    -1.015000000     2.194000000    -5.115000000
O     0.188000000     2.644000000    -5.680000000
C     0.868000000     3.759000000    -5.202000000
C     0.621000000     5.007000000    -5.584000000
H    -0.191000000     5.198000000    -6.280000000
C     1.459000000     6.084000000    -5.187000000
H     1.248000000     7.074000000    -5.583000000
C     2.572000000     5.886000000    -4.464000000
H     3.196000000     6.714000000    -4.140000000
C     2.867000000     4.566000000    -4.047000000
C     2.094000000     3.495000000    -4.433000000
H     2.405000000     2.495000000    -4.142000000
O     6.501000000    -4.311000000    -3.601000000
H     6.141000000    -5.191000000    -3.714000000
H     7.176000000    -4.240000000    -4.276000000
O     1.120000000    -5.629000000    -7.200000000
H     0.329000000    -5.104000000    -7.082000000
H     1.145000000    -5.816000000    -8.139000000
O     8.570000000    -1.372000000    -2.346000000
H     7.893000000    -0.883000000    -2.815000000
H     8.132000000    -1.687000000    -1.555000000
O     7.077000000    -4.266000000    -6.445000000
H     6.563000000    -4.868000000    -6.984000000
H     6.732000000    -3.399000000    -6.659000000
O     6.246000000    -2.486000000    -1.393000000
H     5.394000000    -2.053000000    -1.447000000
H     6.329000000    -2.955000000    -2.224000000
O     3.923000000    -3.503000000    -5.209000000
H     4.765000000    -3.461000000    -4.755000000
H     3.369000000    -2.876000000    -4.745000000
O     3.537000000    -7.352000000    -2.621000000
H     3.178000000    -8.230000000    -2.753000000
H     2.884000000    -6.766000000    -3.003000000
O     2.479000000    -0.070000000    -6.215000000
H     2.932000000    -0.777000000    -6.674000000
H     2.258000000    -0.443000000    -5.361000000
O     5.735000000    -6.315000000    -0.558000000
H     5.981000000    -5.431000000    -0.832000000
H     4.979000000    -6.533000000    -1.102000000
O     1.167000000     0.760000000    -8.385000000
H     1.375000000     0.579000000    -7.468000000
H     0.922000000    -0.091000000    -8.747000000
O    -0.020000000    -3.183000000    -5.305000000
H    -0.011000000    -4.105000000    -5.050000000
H     0.684000000    -2.786000000    -4.793000000
O     3.507000000    -2.612000000    -7.657000000
H     2.610000000    -2.568000000    -7.988000000
H     3.452000000    -3.181000000    -6.889000000
O     4.746000000     1.767000000    -5.593000000
H     5.048000000     1.758000000    -4.685000000
H     3.960000000     1.222000000    -5.590000000
O     5.520000000    -6.785000000    -4.393000000
H     4.777000000    -7.060000000    -3.855000000
H     5.120000000    -6.397000000    -5.171000000
O     0.877000000    -2.174000000    -7.928000000
H     0.634000000    -2.482000000    -7.055000000
H     0.270000000    -2.621000000    -8.518000000
O     2.966000000    -5.960000000    -5.321000000
H     2.296000000    -5.976000000    -6.006000000
H     3.472000000    -5.168000000    -5.500000000
O     3.472000000     2.199000000    -8.118000000
H     3.678000000     1.921000000    -7.226000000
H     2.729000000     1.653000000    -8.374000000
O     6.055000000    -1.849000000    -7.072000000
H     5.162000000    -2.088000000    -7.319000000
H     6.167000000    -0.960000000    -7.410000000
O     6.095000000    -0.974000000    -4.180000000
H     5.210000000    -1.117000000    -3.846000000
H     6.043000000    -1.214000000    -5.105000000
