201
-1248.17362
C    -2.427000000    -4.183000000     1.073000000
H    -2.713000000    -4.449000000     0.058000000
C    -2.691000000    -2.908000000     1.671000000
C    -2.228000000    -2.673000000     2.995000000
H    -2.306000000    -1.702000000     3.477000000
C    -3.331000000    -1.792000000     0.877000000
O    -4.263000000    -2.365000000    -0.182000000
H    -2.625000000    -1.070000000     0.442000000
O    -4.169000000    -1.106000000     1.717000000
C    -4.138000000     0.247000000     1.607000000
C    -3.416000000     0.915000000     2.552000000
H    -2.945000000     0.359000000     3.358000000
C    -3.251000000     2.279000000     2.416000000
O    -2.616000000     2.961000000     3.429000000
C    -3.742000000     3.021000000     1.256000000
C    -3.303000000     4.499000000     1.018000000
H    -4.035000000     4.990000000     0.373000000
C    -1.944000000     4.513000000     0.418000000
C    -1.702000000     4.550000000    -0.934000000
H    -2.590000000     4.639000000    -1.555000000
H    -3.349000000     5.018000000     1.978000000
C    -4.440000000     2.300000000     0.297000000
H    -4.690000000     2.808000000    -0.630000000
C    -4.676000000     0.936000000     0.498000000
C    -5.424000000     0.169000000    -0.566000000
H    -6.095000000     0.828000000    -1.121000000
H    -5.998000000    -0.627000000    -0.088000000
C    -4.540000000    -0.424000000    -1.591000000
C    -4.230000000     0.348000000    -2.746000000
H    -4.589000000     1.337000000    -3.017000000
C    -4.000000000    -1.697000000    -1.357000000
C    -3.162000000    -2.279000000    -2.281000000
H    -2.731000000    -3.258000000    -2.091000000
C    -2.713000000    -1.496000000    -3.373000000
O    -1.786000000    -2.101000000    -4.286000000
C    -0.434000000    -1.632000000    -4.105000000
C     0.570000000    -2.775000000    -3.996000000
C     1.944000000    -2.580000000    -4.146000000
H     2.410000000    -1.613000000    -4.317000000
C     0.022000000    -4.055000000    -3.649000000
H    -1.055000000    -4.208000000    -3.645000000
O     0.013000000    -0.687000000    -5.137000000
H    -0.337000000    -1.062000000    -3.170000000
C    -3.207000000    -0.188000000    -3.612000000
C    -2.686000000     0.623000000    -4.847000000
H    -3.464000000     1.278000000    -5.245000000
H    -2.557000000    -0.117000000    -5.640000000
C    -1.338000000     1.234000000    -4.463000000
C    -1.330000000     2.565000000    -4.013000000
H    -2.272000000     3.087000000    -3.868000000
C    -0.106000000     0.622000000    -4.748000000
C     1.125000000     1.257000000    -4.432000000
H     2.083000000     0.771000000    -4.603000000
C     1.044000000     2.534000000    -3.788000000
O     2.122000000     3.005000000    -3.199000000
C     2.193000000     2.939000000    -1.762000000
C     3.578000000     2.298000000    -1.384000000
C     4.358000000     1.565000000    -2.234000000
H     4.058000000     1.445000000    -3.271000000
C     4.050000000     2.544000000    -0.073000000
H     3.260000000     2.957000000     0.549000000
O     1.982000000     4.199000000    -1.159000000
H     1.391000000     2.255000000    -1.447000000
C    -0.176000000     3.115000000    -3.595000000
C    -0.259000000     4.470000000    -2.992000000
H    -1.116000000     4.943000000    -3.477000000
H     0.538000000     5.127000000    -3.348000000
C    -0.443000000     4.490000000    -1.511000000
C     0.714000000     4.565000000    -0.714000000
C     0.484000000     4.474000000     0.692000000
H     1.365000000     4.351000000     1.317000000
C    -0.837000000     4.492000000     1.247000000
O    -0.945000000     4.389000000     2.644000000
C    -1.158000000     3.103000000     3.225000000
H    -0.868000000     2.258000000     2.583000000
C    -0.373000000     2.913000000     4.472000000
C    -0.824000000     2.126000000     5.583000000
H    -1.823000000     1.735000000     5.754000000
C     0.978000000     3.329000000     4.500000000
H     1.386000000     3.927000000     3.689000000
C     1.827000000     2.982000000     5.573000000
O     3.188000000     3.248000000     5.483000000
C     1.364000000     2.062000000     6.568000000
H     2.076000000     1.679000000     7.294000000
C     0.061000000     1.592000000     6.503000000
O    -0.265000000     0.521000000     7.305000000
C    -1.182000000    -0.452000000     7.020000000
C    -0.870000000    -1.514000000     6.173000000
H     0.171000000    -1.575000000     5.866000000
C    -2.540000000    -0.412000000     7.452000000
H    -2.839000000     0.374000000     8.142000000
C    -3.471000000    -1.399000000     7.109000000
H    -4.549000000    -1.336000000     7.235000000
C    -3.036000000    -2.459000000     6.337000000
H    -3.697000000    -3.193000000     5.884000000
C    -1.768000000    -2.512000000     5.852000000
O    -1.227000000    -3.518000000     5.036000000
C    -1.645000000    -3.748000000     3.726000000
C    -1.459000000    -4.968000000     3.151000000
H    -0.875000000    -5.733000000     3.655000000
C    -1.708000000    -5.101000000     1.817000000
O    -1.460000000    -6.355000000     1.286000000
C    -1.476000000    -6.733000000    -0.010000000
C    -0.624000000    -6.236000000    -1.021000000
H     0.127000000    -5.489000000    -0.777000000
C    -2.374000000    -7.678000000    -0.374000000
H    -3.045000000    -8.078000000     0.382000000
C    -2.453000000    -8.200000000    -1.667000000
H    -3.161000000    -8.982000000    -1.928000000
C    -1.551000000    -7.736000000    -2.609000000
H    -1.552000000    -8.136000000    -3.620000000
C    -0.604000000    -6.747000000    -2.294000000
O     0.355000000    -6.404000000    -3.240000000
C     0.893000000    -5.125000000    -3.426000000
C     2.286000000    -4.904000000    -3.592000000
H     2.916000000    -5.789000000    -3.552000000
C     2.805000000    -3.611000000    -3.827000000
O     4.163000000    -3.503000000    -3.902000000
C     4.776000000    -2.358000000    -4.274000000
C     5.340000000    -1.574000000    -3.358000000
H     5.240000000    -1.794000000    -2.298000000
C     4.960000000    -2.085000000    -5.630000000
H     4.466000000    -2.679000000    -6.395000000
C     5.552000000    -0.905000000    -5.997000000
H     5.702000000    -0.609000000    -7.033000000
C     6.053000000    -0.050000000    -5.004000000
H     6.451000000     0.892000000    -5.374000000
C     5.958000000    -0.381000000    -3.668000000
O     6.409000000     0.447000000    -2.623000000
C     5.546000000     1.000000000    -1.739000000
C     6.011000000     1.217000000    -0.427000000
H     6.963000000     0.860000000    -0.042000000
C     5.287000000     2.067000000     0.374000000
O     5.715000000     2.330000000     1.633000000
C     5.104000000     3.265000000     2.450000000
C     5.305000000     4.633000000     2.204000000
H     5.821000000     4.906000000     1.286000000
C     4.694000000     5.576000000     3.043000000
H     4.677000000     6.626000000     2.764000000
C     4.083000000     5.072000000     4.211000000
H     3.580000000     5.770000000     4.876000000
C     3.876000000     3.738000000     4.398000000
C     4.286000000     2.800000000     3.534000000
H     4.092000000     1.744000000     3.703000000
O     0.826000000    -7.531000000     2.225000000
H     1.158000000    -6.717000000     1.847000000
H    -0.063000000    -7.611000000     1.879000000
O     8.458000000    -0.623000000     3.809000000
H     7.863000000    -1.075000000     3.211000000
H     9.305000000    -1.047000000     3.671000000
O     3.117000000    -8.945000000     1.202000000
H     2.514000000    -8.365000000     1.667000000
H     3.378000000    -8.447000000     0.428000000
O     8.924000000    -4.061000000     4.402000000
H     8.716000000    -3.333000000     3.817000000
H     8.084000000    -4.494000000     4.553000000
O     6.742000000    -6.744000000     1.694000000
H     7.565000000    -6.471000000     2.100000000
H     6.604000000    -6.116000000     0.985000000
O     6.724000000    -6.562000000    -1.863000000
H     7.680000000    -6.612000000    -1.850000000
H     6.514000000    -5.833000000    -1.279000000
O     6.308000000    -5.047000000     4.486000000
H     5.645000000    -5.025000000     5.176000000
H     5.808000000    -5.160000000     3.677000000
O     7.334000000    -7.603000000     4.934000000
H     7.023000000    -6.814000000     4.489000000
H     7.870000000    -7.274000000     5.656000000
O     4.563000000    -2.081000000     5.672000000
H     5.504000000    -2.044000000     5.841000000
H     4.491000000    -2.476000000     4.803000000
O     3.481000000    -7.341000000    -1.210000000
H     4.368000000    -7.365000000    -1.569000000
H     2.956000000    -7.842000000    -1.834000000
O     7.835000000    -2.295000000     0.147000000
H     8.089000000    -2.128000000    -0.761000000
H     8.622000000    -2.656000000     0.554000000
O     2.792000000    -1.686000000     7.486000000
H     3.416000000    -1.762000000     6.764000000
H     3.251000000    -1.165000000     8.145000000
O     6.753000000    -2.559000000     2.952000000
H     5.804000000    -2.546000000     3.073000000
H     6.875000000    -2.790000000     2.031000000
O     7.129000000    -0.993000000     6.399000000
H     7.697000000    -0.942000000     5.630000000
H     7.682000000    -1.371000000     7.081000000
O     2.288000000    -5.661000000     6.216000000
H     3.027000000    -5.645000000     6.824000000
H     2.655000000    -5.362000000     5.385000000
O     3.601000000    -5.152000000     3.870000000
H     2.965000000    -5.447000000     3.219000000
H     3.823000000    -4.260000000     3.602000000
O     2.180000000    -5.691000000     0.782000000
H     2.486000000    -6.327000000     0.135000000
H     2.798000000    -4.963000000     0.712000000
O     4.845000000     0.859000000     6.361000000
H     5.639000000     0.328000000     6.417000000
H     4.145000000     0.227000000     6.199000000
O     6.078000000    -4.585000000    -0.164000000
H     5.224000000    -4.519000000     0.263000000
H     6.509000000    -3.754000000     0.033000000
