201
-1261.62246
C     3.911000000    -3.339000000     2.143000000
H     3.141000000    -3.956000000     2.598000000
C     3.886000000    -2.017000000     2.415000000
C     4.820000000    -1.171000000     1.842000000
H     4.787000000    -0.130000000     2.154000000
C     2.778000000    -1.379000000     3.201000000
O     2.065000000    -2.392000000     4.057000000
H     2.096000000    -1.003000000     2.424000000
O     3.282000000    -0.292000000     3.984000000
C     2.458000000     0.856000000     4.132000000
C     2.837000000     1.964000000     3.330000000
H     3.677000000     1.854000000     2.650000000
C     1.983000000     3.044000000     3.118000000
O     2.231000000     3.929000000     2.046000000
C     0.769000000     3.086000000     3.819000000
C    -0.091000000     4.293000000     3.578000000
H    -0.656000000     4.429000000     4.502000000
C    -1.068000000     4.115000000     2.367000000
C    -2.392000000     3.726000000     2.628000000
H    -2.696000000     3.462000000     3.637000000
H     0.588000000     5.128000000     3.393000000
C     0.425000000     2.015000000     4.685000000
H    -0.496000000     2.058000000     5.260000000
C     1.259000000     0.888000000     4.851000000
C     0.805000000    -0.262000000     5.767000000
H     0.260000000     0.117000000     6.634000000
H     1.667000000    -0.803000000     6.163000000
C     0.055000000    -1.253000000     4.912000000
C    -1.354000000    -1.151000000     4.810000000
H    -1.843000000    -0.342000000     5.347000000
C     0.678000000    -2.287000000     4.221000000
C    -0.081000000    -3.160000000     3.449000000
H     0.480000000    -3.810000000     2.783000000
C    -1.458000000    -3.001000000     3.293000000
O    -2.074000000    -3.692000000     2.343000000
C    -2.349000000    -3.058000000     1.052000000
C    -2.062000000    -3.864000000    -0.153000000
C    -2.902000000    -3.767000000    -1.283000000
H    -3.778000000    -3.122000000    -1.275000000
C    -0.867000000    -4.592000000    -0.219000000
H    -0.148000000    -4.631000000     0.595000000
O    -3.811000000    -2.757000000     1.072000000
H    -1.891000000    -2.079000000     0.852000000
C    -2.137000000    -1.942000000     3.953000000
C    -3.669000000    -1.802000000     3.859000000
H    -4.046000000    -1.278000000     4.739000000
H    -4.172000000    -2.772000000     3.840000000
C    -4.163000000    -0.949000000     2.682000000
C    -4.277000000     0.465000000     2.782000000
H    -4.088000000     0.983000000     3.718000000
C    -4.245000000    -1.490000000     1.356000000
C    -4.562000000    -0.727000000     0.259000000
H    -4.588000000    -1.141000000    -0.746000000
C    -4.634000000     0.661000000     0.486000000
O    -4.784000000     1.351000000    -0.731000000
C    -3.680000000     2.079000000    -1.275000000
C    -3.671000000     1.999000000    -2.802000000
C    -4.254000000     0.850000000    -3.382000000
H    -4.861000000     0.182000000    -2.777000000
C    -3.023000000     2.961000000    -3.631000000
H    -2.651000000     3.935000000    -3.325000000
O    -3.628000000     3.499000000    -0.931000000
H    -2.810000000     1.564000000    -0.843000000
C    -4.537000000     1.257000000     1.739000000
C    -4.563000000     2.767000000     1.805000000
H    -5.065000000     2.935000000     2.760000000
H    -5.359000000     3.089000000     1.130000000
C    -3.284000000     3.434000000     1.575000000
C    -2.898000000     3.840000000     0.294000000
C    -1.658000000     4.359000000     0.057000000
H    -1.296000000     4.516000000    -0.956000000
C    -0.726000000     4.473000000     1.059000000
O     0.552000000     4.651000000     0.586000000
C     1.538000000     3.656000000     0.858000000
H     1.085000000     2.659000000     0.967000000
C     2.416000000     3.677000000    -0.337000000
C     3.783000000     3.784000000    -0.166000000
H     4.239000000     3.902000000     0.814000000
C     1.841000000     3.543000000    -1.596000000
H     0.769000000     3.545000000    -1.777000000
C     2.678000000     3.444000000    -2.714000000
O     2.291000000     3.213000000    -4.017000000
C     4.051000000     3.493000000    -2.505000000
H     4.528000000     3.469000000    -3.482000000
C     4.599000000     3.726000000    -1.251000000
O     5.967000000     3.747000000    -1.056000000
C     6.439000000     2.795000000    -0.188000000
C     6.412000000     1.410000000    -0.389000000
H     6.044000000     0.920000000    -1.287000000
C     6.924000000     3.330000000     1.040000000
H     7.057000000     4.404000000     1.148000000
C     7.383000000     2.466000000     2.024000000
H     7.853000000     2.939000000     2.882000000
C     7.333000000     1.079000000     1.842000000
H     7.648000000     0.339000000     2.573000000
C     6.731000000     0.577000000     0.659000000
O     6.720000000    -0.785000000     0.411000000
C     5.805000000    -1.671000000     0.982000000
C     5.824000000    -3.008000000     0.658000000
H     6.623000000    -3.360000000     0.011000000
C     4.822000000    -3.816000000     1.162000000
O     4.750000000    -5.192000000     0.881000000
C     3.541000000    -5.787000000     0.628000000
C     2.721000000    -5.392000000    -0.433000000
H     2.949000000    -4.500000000    -1.012000000
C     3.298000000    -6.999000000     1.293000000
H     4.073000000    -7.420000000     1.928000000
C     2.052000000    -7.628000000     1.115000000
H     1.846000000    -8.463000000     1.781000000
C     1.145000000    -7.147000000     0.186000000
H     0.166000000    -7.603000000     0.067000000
C     1.561000000    -6.078000000    -0.619000000
O     0.779000000    -5.700000000    -1.639000000
C    -0.488000000    -5.199000000    -1.406000000
C    -1.401000000    -5.237000000    -2.394000000
H    -1.144000000    -5.780000000    -3.300000000
C    -2.581000000    -4.562000000    -2.416000000
O    -3.215000000    -4.635000000    -3.618000000
C    -4.223000000    -3.830000000    -3.999000000
C    -3.971000000    -2.548000000    -4.501000000
H    -2.999000000    -2.104000000    -4.304000000
C    -5.471000000    -4.420000000    -4.164000000
H    -5.692000000    -5.470000000    -3.985000000
C    -6.433000000    -3.674000000    -4.817000000
H    -7.352000000    -4.208000000    -5.046000000
C    -6.295000000    -2.354000000    -5.100000000
H    -7.179000000    -1.771000000    -5.342000000
C    -5.059000000    -1.782000000    -4.945000000
O    -4.909000000    -0.492000000    -5.351000000
C    -4.091000000     0.558000000    -4.711000000
C    -3.484000000     1.481000000    -5.540000000
H    -3.390000000     1.131000000    -6.565000000
C    -2.872000000     2.601000000    -4.986000000
O    -2.251000000     3.532000000    -5.786000000
C    -0.970000000     4.068000000    -5.572000000
C    -0.631000000     5.256000000    -6.217000000
H    -1.338000000     5.856000000    -6.783000000
C     0.648000000     5.754000000    -6.115000000
H     0.952000000     6.748000000    -6.433000000
C     1.608000000     5.113000000    -5.321000000
H     2.656000000     5.400000000    -5.304000000
C     1.307000000     3.876000000    -4.677000000
C     0.024000000     3.365000000    -4.801000000
H    -0.153000000     2.386000000    -4.363000000
O     5.830000000    -3.690000000    -5.335000000
H     5.984000000    -4.380000000    -4.690000000
H     6.158000000    -2.893000000    -4.917000000
O    -0.109000000    -5.279000000    -5.629000000
H    -0.181000000    -4.354000000    -5.865000000
H    -1.007000000    -5.548000000    -5.435000000
O     7.071000000    -1.171000000    -4.576000000
H     6.644000000    -0.550000000    -5.166000000
H     6.520000000    -1.174000000    -3.793000000
O     4.656000000    -1.509000000    -3.020000000
H     3.812000000    -1.601000000    -3.463000000
H     4.537000000    -1.958000000    -2.183000000
O     3.974000000    -2.103000000    -6.320000000
H     3.342000000    -1.784000000    -5.675000000
H     4.421000000    -2.826000000    -5.880000000
O     2.601000000    -6.547000000    -6.772000000
H     1.977000000    -5.970000000    -6.332000000
H     2.703000000    -6.169000000    -7.646000000
O     2.638000000    -0.392000000   -10.133000000
H     2.047000000    -1.106000000   -10.374000000
H     3.468000000    -0.825000000    -9.936000000
O     4.905000000    -6.114000000    -3.598000000
H     4.463000000    -6.887000000    -3.247000000
H     4.220000000    -5.641000000    -4.072000000
O     1.619000000     0.926000000    -7.208000000
H     1.764000000     0.082000000    -7.635000000
H     1.349000000     0.701000000    -6.317000000
O    -0.958000000     0.507000000    -8.293000000
H    -0.878000000     1.350000000    -8.739000000
H    -0.270000000     0.521000000    -7.628000000
O    -0.252000000    -2.618000000    -6.345000000
H    -0.211000000    -1.926000000    -5.685000000
H     0.526000000    -2.480000000    -6.885000000
O     1.772000000    -2.115000000    -7.870000000
H     2.490000000    -1.840000000    -7.299000000
H     2.201000000    -2.576000000    -8.590000000
O    -0.197000000     2.745000000    -9.713000000
H     0.726000000     2.960000000    -9.575000000
H    -0.621000000     3.591000000    -9.856000000
O     3.066000000     3.138000000    -7.366000000
H     3.232000000     3.243000000    -6.429000000
H     2.730000000     2.246000000    -7.451000000
O    -1.882000000    -2.489000000    -8.982000000
H    -1.599000000    -1.716000000    -8.493000000
H    -2.792000000    -2.622000000    -8.715000000
O     2.510000000    -4.541000000    -4.142000000
H     1.760000000    -5.034000000    -4.474000000
H     2.206000000    -3.633000000    -4.113000000
O     6.826000000     2.599000000    -5.723000000
H     6.667000000     2.191000000    -6.575000000
H     6.257000000     2.121000000    -5.120000000
O     5.017000000    -1.434000000    -9.053000000
H     4.918000000    -1.416000000    -8.101000000
H     5.675000000    -2.110000000    -9.213000000
O     4.617000000     1.191000000    -4.721000000
H     4.249000000     0.510000000    -4.158000000
H     4.076000000     1.167000000    -5.511000000
