201
-1260.14011
C     2.147000000    -3.906000000     1.161000000
H     1.066000000    -3.923000000     1.044000000
C     2.689000000    -3.138000000     2.188000000
C     4.044000000    -2.933000000     2.247000000
H     4.470000000    -2.389000000     3.087000000
C     1.732000000    -2.493000000     3.148000000
O     0.768000000    -3.366000000     3.667000000
H     1.144000000    -1.775000000     2.557000000
O     2.466000000    -1.799000000     4.221000000
C     2.093000000    -0.484000000     4.494000000
C     2.829000000     0.564000000     4.026000000
H     3.835000000     0.350000000     3.676000000
C     2.240000000     1.816000000     3.910000000
O     2.992000000     2.713000000     3.150000000
C     1.032000000     2.123000000     4.420000000
C     0.378000000     3.576000000     4.441000000
H    -0.291000000     3.760000000     5.285000000
C    -0.368000000     3.843000000     3.135000000
C    -1.743000000     3.575000000     3.009000000
H    -2.293000000     3.341000000     3.917000000
H     1.139000000     4.356000000     4.509000000
C     0.316000000     1.130000000     5.001000000
H    -0.671000000     1.354000000     5.396000000
C     0.825000000    -0.201000000     5.088000000
C    -0.082000000    -1.273000000     5.574000000
H    -0.703000000    -0.799000000     6.336000000
H     0.517000000    -2.054000000     6.049000000
C    -0.966000000    -1.782000000     4.409000000
C    -2.306000000    -1.384000000     4.248000000
H    -2.664000000    -0.519000000     4.800000000
C    -0.503000000    -2.814000000     3.555000000
C    -1.329000000    -3.359000000     2.553000000
H    -0.889000000    -3.996000000     1.790000000
C    -2.614000000    -2.879000000     2.405000000
O    -3.343000000    -3.359000000     1.340000000
C    -3.385000000    -2.579000000     0.160000000
C    -3.340000000    -3.383000000    -1.147000000
C    -3.929000000    -2.916000000    -2.321000000
H    -4.399000000    -1.936000000    -2.357000000
C    -2.608000000    -4.572000000    -1.165000000
H    -2.118000000    -4.863000000    -0.239000000
O    -4.635000000    -1.910000000     0.155000000
H    -2.523000000    -1.900000000     0.076000000
C    -3.082000000    -1.874000000     3.232000000
C    -4.451000000    -1.195000000     3.003000000
H    -4.822000000    -0.767000000     3.937000000
H    -5.212000000    -1.937000000     2.754000000
C    -4.487000000    -0.168000000     1.889000000
C    -4.341000000     1.136000000     2.234000000
H    -4.122000000     1.432000000     3.257000000
C    -4.614000000    -0.628000000     0.559000000
C    -4.455000000     0.396000000    -0.424000000
H    -4.460000000     0.043000000    -1.452000000
C    -4.257000000     1.721000000    -0.092000000
O    -3.986000000     2.568000000    -1.096000000
C    -2.607000000     2.914000000    -1.299000000
C    -2.242000000     2.759000000    -2.800000000
C    -2.974000000     1.931000000    -3.711000000
H    -3.891000000     1.430000000    -3.412000000
C    -1.072000000     3.393000000    -3.233000000
H    -0.558000000     4.070000000    -2.556000000
O    -2.274000000     4.179000000    -0.680000000
H    -2.088000000     2.166000000    -0.681000000
C    -4.173000000     2.100000000     1.271000000
C    -3.920000000     3.530000000     1.637000000
H    -4.385000000     3.659000000     2.617000000
H    -4.336000000     4.216000000     0.896000000
C    -2.405000000     3.722000000     1.760000000
C    -1.646000000     4.139000000     0.589000000
C    -0.293000000     4.291000000     0.793000000
H     0.405000000     4.465000000    -0.022000000
C     0.372000000     4.203000000     2.011000000
O     1.669000000     4.259000000     1.992000000
C     2.398000000     2.999000000     1.893000000
H     1.753000000     2.131000000     1.689000000
C     3.458000000     3.107000000     0.744000000
C     4.536000000     2.227000000     0.639000000
H     4.662000000     1.523000000     1.457000000
C     3.354000000     4.088000000    -0.273000000
H     2.526000000     4.793000000    -0.300000000
C     4.287000000     4.206000000    -1.285000000
O     4.122000000     5.137000000    -2.188000000
C     5.363000000     3.325000000    -1.352000000
H     6.135000000     3.530000000    -2.090000000
C     5.483000000     2.335000000    -0.383000000
O     6.628000000     1.533000000    -0.297000000
C     6.844000000     0.536000000     0.649000000
C     6.387000000    -0.756000000     0.483000000
H     5.992000000    -1.025000000    -0.493000000
C     7.521000000     0.912000000     1.815000000
H     7.836000000     1.943000000     1.951000000
C     7.792000000    -0.021000000     2.835000000
H     8.230000000     0.296000000     3.778000000
C     7.379000000    -1.350000000     2.610000000
H     7.609000000    -2.041000000     3.417000000
C     6.657000000    -1.724000000     1.465000000
O     6.187000000    -2.988000000     1.318000000
C     4.857000000    -3.289000000     1.198000000
C     4.362000000    -4.061000000     0.177000000
H     5.021000000    -4.435000000    -0.602000000
C     3.001000000    -4.367000000     0.181000000
O     2.550000000    -5.190000000    -0.831000000
C     1.494000000    -6.033000000    -0.800000000
C     0.342000000    -5.714000000    -1.545000000
H     0.153000000    -4.756000000    -2.023000000
C     1.759000000    -7.341000000    -0.272000000
H     2.643000000    -7.657000000     0.275000000
C     0.783000000    -8.308000000    -0.571000000
H     0.894000000    -9.293000000    -0.123000000
C    -0.344000000    -8.058000000    -1.274000000
H    -1.122000000    -8.780000000    -1.509000000
C    -0.618000000    -6.753000000    -1.714000000
O    -1.783000000    -6.518000000    -2.497000000
C    -2.446000000    -5.288000000    -2.381000000
C    -3.072000000    -4.814000000    -3.543000000
H    -2.976000000    -5.496000000    -4.385000000
C    -3.868000000    -3.710000000    -3.482000000
O    -4.414000000    -3.317000000    -4.631000000
C    -4.772000000    -1.998000000    -4.919000000
C    -3.800000000    -1.036000000    -5.205000000
H    -2.770000000    -1.369000000    -5.105000000
C    -6.078000000    -1.593000000    -5.149000000
H    -6.822000000    -2.349000000    -4.910000000
C    -6.432000000    -0.298000000    -5.573000000
H    -7.478000000    -0.039000000    -5.716000000
C    -5.441000000     0.544000000    -5.931000000
H    -5.743000000     1.537000000    -6.251000000
C    -4.100000000     0.216000000    -5.706000000
O    -3.104000000     1.090000000    -5.991000000
C    -2.519000000     1.866000000    -5.026000000
C    -1.254000000     2.342000000    -5.383000000
H    -0.836000000     2.093000000    -6.355000000
C    -0.608000000     3.203000000    -4.536000000
O     0.440000000     3.912000000    -5.000000000
C     1.159000000     4.842000000    -4.367000000
C     0.822000000     6.193000000    -4.482000000
H    -0.062000000     6.481000000    -5.045000000
C     1.611000000     7.143000000    -3.738000000
H     1.302000000     8.185000000    -3.753000000
C     2.703000000     6.763000000    -3.013000000
H     3.303000000     7.528000000    -2.526000000
C     3.004000000     5.427000000    -2.891000000
C     2.270000000     4.426000000    -3.593000000
H     2.548000000     3.381000000    -3.488000000
O     6.419000000    -0.979000000    -7.025000000
H     6.335000000    -0.652000000    -7.921000000
H     5.726000000    -1.635000000    -6.944000000
O     7.957000000    -3.970000000    -5.381000000
H     7.089000000    -4.357000000    -5.265000000
H     8.384000000    -4.081000000    -4.532000000
O    -0.354000000    -2.664000000    -5.358000000
H     0.373000000    -2.486000000    -4.761000000
H    -0.167000000    -2.129000000    -6.129000000
O     4.073000000    -7.475000000    -4.408000000
H     3.392000000    -8.057000000    -4.746000000
H     3.611000000    -6.891000000    -3.806000000
O     7.356000000    -4.699000000    -1.992000000
H     6.756000000    -4.101000000    -2.437000000
H     7.841000000    -4.143000000    -1.383000000
O     8.288000000     0.162000000    -3.198000000
H     7.446000000     0.609000000    -3.102000000
H     8.727000000     0.296000000    -2.359000000
O     1.064000000     1.216000000    -7.671000000
H     0.560000000     0.443000000    -7.419000000
H     1.978000000     0.945000000    -7.588000000
O     3.551000000     0.151000000    -7.763000000
H     4.322000000     0.183000000    -8.330000000
H     3.586000000    -0.717000000    -7.361000000
O     5.679000000    -5.215000000    -4.930000000
H     4.872000000    -4.765000000    -4.680000000
H     5.413000000    -6.122000000    -5.077000000
O     3.265000000    -5.302000000    -6.872000000
H     2.966000000    -6.181000000    -7.102000000
H     3.085000000    -5.225000000    -5.935000000
O     2.547000000    -4.308000000    -9.286000000
H     2.386000000    -5.152000000    -9.708000000
H     2.526000000    -4.501000000    -8.349000000
O    -0.912000000    -5.031000000    -6.558000000
H    -0.181000000    -5.516000000    -6.174000000
H    -0.943000000    -4.213000000    -6.062000000
O     6.270000000    -2.054000000    -2.704000000
H     6.527000000    -1.193000000    -3.034000000
H     5.313000000    -2.046000000    -2.735000000
O     1.059000000    -6.925000000    -6.076000000
H     0.696000000    -7.037000000    -6.955000000
H     1.495000000    -7.757000000    -5.889000000
O     4.868000000     1.501000000    -5.685000000
H     5.650000000     0.972000000    -5.836000000
H     4.332000000     1.366000000    -6.467000000
O    -0.199000000    -1.336000000    -7.646000000
H    -0.985000000    -1.058000000    -8.117000000
H     0.303000000    -1.834000000    -8.291000000
O     3.298000000    -4.818000000    -3.764000000
H     2.755000000    -5.101000000    -3.028000000
H     3.012000000    -3.922000000    -3.941000000
O     3.840000000    -1.830000000    -5.960000000
H     4.298000000    -1.781000000    -5.121000000
H     2.918000000    -1.932000000    -5.724000000
O     5.231000000     0.506000000    -2.930000000
H     5.053000000     1.248000000    -3.508000000
H     4.441000000    -0.032000000    -2.981000000
