201
-1227.64825
C     2.010000000    -4.600000000    -1.273000000
H     1.274000000    -5.006000000    -0.583000000
C     2.966000000    -3.702000000    -0.772000000
C     3.961000000    -3.287000000    -1.705000000
H     4.792000000    -2.705000000    -1.316000000
C     2.911000000    -3.235000000     0.675000000
O     2.457000000    -4.163000000     1.581000000
H     2.174000000    -2.429000000     0.542000000
O     4.117000000    -2.673000000     1.026000000
C     4.152000000    -1.492000000     1.648000000
C     4.330000000    -0.377000000     0.853000000
H     4.574000000    -0.454000000    -0.204000000
C     4.084000000     0.942000000     1.346000000
O     4.335000000     2.009000000     0.498000000
C     3.732000000     1.188000000     2.714000000
C     3.607000000     2.590000000     3.288000000
H     3.766000000     2.619000000     4.368000000
C     2.263000000     3.188000000     2.957000000
C     1.199000000     3.065000000     3.850000000
H     1.429000000     2.673000000     4.837000000
H     4.441000000     3.148000000     2.856000000
C     3.421000000     0.065000000     3.440000000
H     2.903000000     0.170000000     4.389000000
C     3.572000000    -1.262000000     2.903000000
C     3.339000000    -2.467000000     3.788000000
H     3.471000000    -2.230000000     4.846000000
H     3.998000000    -3.316000000     3.599000000
C     1.925000000    -2.941000000     3.616000000
C     0.868000000    -2.425000000     4.408000000
H     1.020000000    -1.592000000     5.091000000
C     1.538000000    -3.677000000     2.530000000
C     0.216000000    -3.966000000     2.243000000
H    -0.028000000    -4.593000000     1.389000000
C    -0.842000000    -3.514000000     3.016000000
O    -2.131000000    -3.761000000     2.569000000
C    -2.742000000    -2.676000000     1.812000000
C    -3.634000000    -3.160000000     0.656000000
C    -4.648000000    -2.411000000     0.118000000
H    -4.832000000    -1.457000000     0.607000000
C    -3.300000000    -4.386000000    -0.001000000
H    -2.421000000    -4.899000000     0.382000000
O    -3.539000000    -1.986000000     2.802000000
H    -2.001000000    -1.953000000     1.441000000
C    -0.490000000    -2.692000000     4.062000000
C    -1.633000000    -2.044000000     4.915000000
H    -1.254000000    -1.842000000     5.919000000
H    -2.480000000    -2.728000000     4.996000000
C    -2.141000000    -0.698000000     4.368000000
C    -1.554000000     0.476000000     4.754000000
H    -0.754000000     0.311000000     5.471000000
C    -3.121000000    -0.738000000     3.364000000
C    -3.571000000     0.465000000     2.799000000
H    -4.326000000     0.355000000     2.025000000
C    -2.905000000     1.642000000     3.145000000
O    -3.263000000     2.767000000     2.372000000
C    -2.319000000     3.177000000     1.362000000
C    -2.957000000     3.582000000    -0.009000000
C    -3.923000000     2.788000000    -0.527000000
H    -4.259000000     1.995000000     0.138000000
C    -2.535000000     4.717000000    -0.647000000
H    -1.704000000     5.293000000    -0.248000000
O    -1.606000000     4.332000000     1.931000000
H    -1.572000000     2.377000000     1.253000000
C    -1.849000000     1.694000000     4.141000000
C    -1.206000000     3.034000000     4.421000000
H    -0.913000000     3.065000000     5.473000000
H    -1.930000000     3.850000000     4.378000000
C    -0.107000000     3.420000000     3.491000000
C    -0.322000000     4.125000000     2.356000000
C     0.744000000     4.342000000     1.439000000
H     0.417000000     4.697000000     0.464000000
C     2.010000000     3.847000000     1.764000000
O     3.028000000     3.853000000     0.872000000
C     3.159000000     2.676000000     0.075000000
H     2.343000000     1.979000000     0.317000000
C     3.146000000     3.023000000    -1.438000000
C     3.786000000     2.163000000    -2.308000000
H     4.354000000     1.348000000    -1.866000000
C     2.426000000     4.104000000    -1.927000000
H     2.078000000     4.832000000    -1.198000000
C     2.453000000     4.402000000    -3.284000000
O     1.854000000     5.559000000    -3.793000000
C     3.121000000     3.526000000    -4.176000000
H     3.060000000     3.695000000    -5.249000000
C     3.798000000     2.425000000    -3.652000000
O     4.545000000     1.741000000    -4.566000000
C     5.299000000     0.572000000    -4.303000000
C     4.705000000    -0.714000000    -4.319000000
H     3.683000000    -0.905000000    -4.635000000
C     6.584000000     0.729000000    -3.760000000
H     7.138000000     1.662000000    -3.830000000
C     7.293000000    -0.369000000    -3.225000000
H     8.357000000    -0.283000000    -3.017000000
C     6.697000000    -1.618000000    -3.372000000
H     7.292000000    -2.483000000    -3.088000000
C     5.421000000    -1.798000000    -3.809000000
O     4.867000000    -3.075000000    -3.876000000
C     3.877000000    -3.553000000    -3.057000000
C     2.866000000    -4.480000000    -3.543000000
H     2.781000000    -4.742000000    -4.594000000
C     1.942000000    -4.989000000    -2.610000000
O     0.865000000    -5.714000000    -3.086000000
C    -0.115000000    -6.425000000    -2.373000000
C    -1.416000000    -5.913000000    -2.355000000
H    -1.532000000    -4.937000000    -2.819000000
C     0.131000000    -7.647000000    -1.797000000
H     1.052000000    -8.172000000    -2.035000000
C    -0.875000000    -8.429000000    -1.215000000
H    -0.761000000    -9.484000000    -0.978000000
C    -2.165000000    -7.897000000    -1.187000000
H    -3.067000000    -8.450000000    -0.936000000
C    -2.429000000    -6.626000000    -1.685000000
O    -3.756000000    -6.135000000    -1.677000000
C    -4.034000000    -4.905000000    -1.121000000
C    -5.012000000    -4.150000000    -1.632000000
H    -5.576000000    -4.523000000    -2.484000000
C    -5.295000000    -2.910000000    -1.017000000
O    -6.405000000    -2.204000000    -1.579000000
C    -6.660000000    -0.922000000    -1.257000000
C    -6.126000000     0.070000000    -1.988000000
H    -5.542000000    -0.111000000    -2.887000000
C    -7.534000000    -0.644000000    -0.266000000
H    -7.950000000    -1.523000000     0.220000000
C    -7.755000000     0.625000000     0.164000000
H    -8.525000000     0.866000000     0.892000000
C    -7.027000000     1.688000000    -0.421000000
H    -7.014000000     2.674000000     0.038000000
C    -6.275000000     1.358000000    -1.538000000
O    -5.510000000     2.208000000    -2.266000000
C    -4.525000000     3.014000000    -1.739000000
C    -4.109000000     4.198000000    -2.369000000
H    -4.472000000     4.381000000    -3.377000000
C    -3.115000000     5.044000000    -1.883000000
O    -2.698000000     6.146000000    -2.621000000
C    -1.395000000     6.542000000    -2.612000000
C    -1.078000000     7.781000000    -2.066000000
H    -1.888000000     8.284000000    -1.545000000
C     0.259000000     8.169000000    -1.848000000
H     0.517000000     8.976000000    -1.167000000
C     1.303000000     7.459000000    -2.476000000
H     2.361000000     7.657000000    -2.328000000
C     0.938000000     6.300000000    -3.129000000
C    -0.333000000     5.785000000    -3.096000000
H    -0.582000000     4.776000000    -3.417000000
O     0.228000000     2.444000000    -3.314000000
H     0.271000000     1.535000000    -3.018000000
H     1.133000000     2.670000000    -3.525000000
O    -3.633000000     0.243000000    -7.219000000
H    -4.375000000     0.818000000    -7.402000000
H    -3.971000000    -0.390000000    -6.586000000
O    -2.997000000    -3.303000000    -8.669000000
H    -3.810000000    -3.285000000    -9.174000000
H    -3.261000000    -3.059000000    -7.782000000
O    -4.357000000    -4.213000000    -6.127000000
H    -4.597000000    -4.813000000    -5.421000000
H    -3.588000000    -3.749000000    -5.795000000
O    -5.993000000    -6.120000000    -4.561000000
H    -6.474000000    -6.113000000    -3.734000000
H    -6.528000000    -5.592000000    -5.154000000
O     2.588000000    -7.667000000    -5.586000000
H     2.057000000    -6.975000000    -5.191000000
H     1.990000000    -8.410000000    -5.670000000
O     2.763000000     0.225000000    -6.841000000
H     2.530000000     0.189000000    -7.769000000
H     2.655000000    -0.674000000    -6.531000000
O     1.973000000    -2.263000000    -6.161000000
H     2.557000000    -2.985000000    -6.393000000
H     1.181000000    -2.690000000    -5.836000000
O    -1.134000000    -7.174000000    -8.275000000
H    -0.849000000    -6.628000000    -7.542000000
H    -2.067000000    -6.982000000    -8.368000000
O    -2.116000000    -3.705000000   -11.305000000
H    -1.718000000    -4.561000000   -11.464000000
H    -2.144000000    -3.627000000   -10.351000000
O    -0.393000000    -5.622000000    -5.371000000
H    -0.672000000    -4.735000000    -5.599000000
H     0.344000000    -5.495000000    -4.774000000
O    -0.720000000    -1.857000000    -8.064000000
H    -1.496000000    -2.357000000    -8.317000000
H    -0.554000000    -2.115000000    -7.157000000
O     0.721000000    -1.814000000   -10.153000000
H     0.291000000    -1.837000000    -9.298000000
H     0.001000000    -1.841000000   -10.783000000
O    -4.137000000    -6.848000000    -7.073000000
H    -4.009000000    -5.901000000    -7.120000000
H    -5.062000000    -6.977000000    -7.283000000
O    -1.645000000     0.571000000    -8.904000000
H    -2.352000000     0.790000000    -8.297000000
H    -1.271000000    -0.238000000    -8.554000000
O    -5.243000000    -1.122000000    -5.414000000
H    -4.688000000    -1.864000000    -5.173000000
H    -6.133000000    -1.474000000    -5.397000000
O     0.194000000     0.660000000    -6.138000000
H     1.138000000     0.574000000    -6.270000000
H    -0.136000000    -0.238000000    -6.177000000
O     0.086000000    -8.931000000    -4.974000000
H    -0.398000000    -9.367000000    -4.273000000
H    -0.292000000    -8.053000000    -5.016000000
O    -2.066000000     2.229000000    -5.086000000
H    -1.982000000     1.510000000    -5.712000000
H    -1.305000000     2.139000000    -4.513000000
