201
-1239.54528
C     1.444000000    -4.877000000    -1.611000000
H     0.565000000    -5.354000000    -1.186000000
C     2.395000000    -4.116000000    -0.931000000
C     3.334000000    -3.364000000    -1.660000000
H     4.100000000    -2.760000000    -1.181000000
C     2.295000000    -3.726000000     0.589000000
O     1.766000000    -4.785000000     1.388000000
H     1.759000000    -2.774000000     0.721000000
O     3.631000000    -3.346000000     1.132000000
C     3.619000000    -2.214000000     1.930000000
C     4.235000000    -1.035000000     1.456000000
H     4.816000000    -1.125000000     0.542000000
C     4.123000000     0.187000000     2.062000000
O     4.631000000     1.279000000     1.365000000
C     3.631000000     0.260000000     3.348000000
C     3.604000000     1.536000000     4.218000000
H     3.496000000     1.228000000     5.260000000
C     2.357000000     2.340000000     3.812000000
C     1.128000000     2.111000000     4.399000000
H     1.027000000     1.473000000     5.273000000
H     4.540000000     2.084000000     4.095000000
C     3.060000000    -0.931000000     3.887000000
H     2.625000000    -0.816000000     4.877000000
C     3.141000000    -2.194000000     3.247000000
C     2.428000000    -3.382000000     3.871000000
H     2.403000000    -3.425000000     4.962000000
H     2.919000000    -4.289000000     3.511000000
C     0.994000000    -3.570000000     3.386000000
C    -0.052000000    -2.968000000     4.091000000
H     0.195000000    -2.471000000     5.025000000
C     0.691000000    -4.348000000     2.237000000
C    -0.656000000    -4.325000000     1.772000000
H    -0.825000000    -4.702000000     0.766000000
C    -1.728000000    -3.744000000     2.540000000
O    -2.914000000    -3.802000000     1.898000000
C    -3.352000000    -2.578000000     1.290000000
C    -4.006000000    -2.634000000    -0.073000000
C    -4.743000000    -1.601000000    -0.682000000
H    -4.749000000    -0.691000000    -0.088000000
C    -3.646000000    -3.702000000    -0.918000000
H    -3.068000000    -4.541000000    -0.540000000
O    -4.144000000    -1.802000000     2.249000000
H    -2.417000000    -2.033000000     1.096000000
C    -1.355000000    -3.205000000     3.735000000
C    -2.502000000    -2.561000000     4.538000000
H    -2.160000000    -2.607000000     5.575000000
H    -3.386000000    -3.186000000     4.396000000
C    -2.709000000    -1.116000000     4.041000000
C    -2.067000000     0.016000000     4.658000000
H    -1.386000000    -0.080000000     5.500000000
C    -3.581000000    -0.845000000     2.959000000
C    -3.829000000     0.448000000     2.512000000
H    -4.539000000     0.585000000     1.700000000
C    -3.070000000     1.492000000     3.074000000
O    -3.261000000     2.754000000     2.477000000
C    -2.098000000     3.261000000     1.702000000
C    -2.550000000     4.006000000     0.415000000
C    -3.882000000     3.768000000    -0.017000000
H    -4.577000000     3.216000000     0.611000000
C    -1.709000000     4.649000000    -0.476000000
H    -0.638000000     4.521000000    -0.344000000
O    -1.244000000     4.086000000     2.420000000
H    -1.516000000     2.426000000     1.285000000
C    -2.270000000     1.293000000     4.175000000
C    -1.342000000     2.348000000     4.795000000
H    -1.055000000     2.031000000     5.800000000
H    -1.894000000     3.284000000     4.901000000
C    -0.105000000     2.644000000     4.004000000
C    -0.077000000     3.511000000     2.920000000
C     1.112000000     3.686000000     2.232000000
H     1.079000000     4.330000000     1.357000000
C     2.341000000     3.145000000     2.652000000
O     3.435000000     3.302000000     1.844000000
C     3.670000000     2.190000000     0.864000000
H     2.720000000     1.654000000     0.719000000
C     4.035000000     2.804000000    -0.507000000
C     4.548000000     1.989000000    -1.492000000
H     4.708000000     0.930000000    -1.303000000
C     3.644000000     4.101000000    -0.851000000
H     3.165000000     4.728000000    -0.102000000
C     3.826000000     4.584000000    -2.134000000
O     3.424000000     5.890000000    -2.507000000
C     4.539000000     3.774000000    -3.080000000
H     4.562000000     4.078000000    -4.124000000
C     4.811000000     2.498000000    -2.757000000
O     5.041000000     1.614000000    -3.825000000
C     5.669000000     0.386000000    -3.583000000
C     4.825000000    -0.663000000    -3.624000000
H     3.761000000    -0.549000000    -3.817000000
C     7.012000000     0.258000000    -3.435000000
H     7.633000000     1.145000000    -3.534000000
C     7.533000000    -0.982000000    -3.236000000
H     8.614000000    -1.098000000    -3.231000000
C     6.706000000    -2.089000000    -3.237000000
H     7.075000000    -3.102000000    -3.103000000
C     5.305000000    -1.942000000    -3.435000000
O     4.591000000    -3.107000000    -3.666000000
C     3.493000000    -3.528000000    -2.975000000
C     2.602000000    -4.318000000    -3.635000000
H     2.569000000    -4.450000000    -4.713000000
C     1.623000000    -4.989000000    -2.956000000
O     0.841000000    -5.795000000    -3.703000000
C    -0.435000000    -6.203000000    -3.373000000
C    -1.429000000    -5.254000000    -3.126000000
H    -1.228000000    -4.186000000    -3.151000000
C    -0.716000000    -7.563000000    -3.301000000
H     0.098000000    -8.262000000    -3.476000000
C    -1.984000000    -8.054000000    -3.165000000
H    -2.117000000    -9.121000000    -3.009000000
C    -3.014000000    -7.098000000    -3.052000000
H    -4.071000000    -7.333000000    -2.956000000
C    -2.717000000    -5.746000000    -2.925000000
O    -3.809000000    -4.908000000    -2.952000000
C    -3.966000000    -3.750000000    -2.246000000
C    -4.721000000    -2.721000000    -2.813000000
H    -4.925000000    -2.763000000    -3.880000000
C    -5.079000000    -1.604000000    -2.067000000
O    -5.796000000    -0.587000000    -2.686000000
C    -6.253000000     0.492000000    -1.972000000
C    -5.728000000     1.770000000    -2.239000000
H    -4.876000000     1.930000000    -2.894000000
C    -7.292000000     0.264000000    -0.983000000
H    -7.707000000    -0.734000000    -0.866000000
C    -7.702000000     1.345000000    -0.229000000
H    -8.415000000     1.159000000     0.571000000
C    -7.145000000     2.618000000    -0.448000000
H    -7.426000000     3.392000000     0.262000000
C    -6.225000000     2.837000000    -1.463000000
O    -5.724000000     4.081000000    -1.582000000
C    -4.389000000     4.278000000    -1.180000000
C    -3.563000000     5.041000000    -1.943000000
H    -3.961000000     5.358000000    -2.904000000
C    -2.223000000     5.211000000    -1.620000000
O    -1.480000000     5.886000000    -2.546000000
C    -0.265000000     6.527000000    -2.244000000
C    -0.260000000     7.908000000    -2.052000000
H    -1.223000000     8.409000000    -2.111000000
C     0.944000000     8.626000000    -1.968000000
H     0.990000000     9.699000000    -1.801000000
C     2.173000000     7.920000000    -2.172000000
H     3.172000000     8.326000000    -2.036000000
C     2.191000000     6.534000000    -2.230000000
C     0.960000000     5.853000000    -2.359000000
H     1.043000000     4.803000000    -2.628000000
O    -3.387000000     3.951000000    -5.344000000
H    -3.933000000     3.413000000    -5.918000000
H    -2.859000000     3.320000000    -4.856000000
O    -2.377000000     0.643000000    -9.418000000
H    -2.088000000     0.324000000    -8.563000000
H    -2.290000000    -0.113000000    -9.998000000
O    -0.030000000     2.221000000    -2.221000000
H     0.013000000     1.450000000    -1.656000000
H     0.540000000     2.008000000    -2.960000000
O    -5.673000000     2.484000000    -6.062000000
H    -5.656000000     1.552000000    -5.844000000
H    -6.218000000     2.537000000    -6.847000000
O    -3.163000000    -2.835000000    -7.114000000
H    -3.604000000    -2.576000000    -7.923000000
H    -2.801000000    -2.020000000    -6.767000000
O     1.296000000    -6.184000000    -6.714000000
H     0.783000000    -6.241000000    -7.520000000
H     0.827000000    -5.546000000    -6.176000000
O    -0.885000000     2.720000000    -7.304000000
H    -1.143000000     1.817000000    -7.123000000
H    -0.092000000     2.641000000    -7.834000000
O    -0.030000000    -2.358000000    -9.677000000
H    -0.854000000    -2.841000000    -9.739000000
H     0.340000000    -2.622000000    -8.835000000
O     1.484000000    -0.722000000    -6.066000000
H     1.650000000    -1.428000000    -6.690000000
H     0.837000000    -1.085000000    -5.460000000
O    -0.619000000    -3.935000000    -6.476000000
H    -0.438000000    -3.226000000    -5.859000000
H    -1.393000000    -3.643000000    -6.957000000
O    -1.218000000     0.008000000    -6.932000000
H    -1.680000000    -0.263000000    -6.139000000
H    -0.294000000     0.017000000    -6.680000000
O    -5.696000000    -1.439000000    -7.606000000
H    -5.277000000    -1.112000000    -6.810000000
H    -6.390000000    -2.018000000    -7.292000000
O     1.442000000     1.426000000    -8.089000000
H     2.107000000     1.821000000    -7.526000000
H     1.909000000     0.741000000    -8.568000000
O     4.347000000     0.064000000    -6.773000000
H     3.989000000     0.101000000    -7.659000000
H     3.819000000    -0.600000000    -6.329000000
O    -4.296000000    -5.154000000    -5.782000000
H    -3.809000000    -4.386000000    -6.080000000
H    -3.819000000    -5.454000000    -5.008000000
O    -2.149000000     1.910000000    -4.177000000
H    -2.492000000     1.027000000    -4.040000000
H    -1.540000000     2.046000000    -3.451000000
O    -5.333000000    -0.250000000    -5.276000000
H    -4.490000000    -0.660000000    -5.080000000
H    -5.853000000    -0.381000000    -4.484000000
O     1.625000000     1.733000000    -4.431000000
H     2.009000000     1.866000000    -5.298000000
H     2.304000000     1.274000000    -3.937000000
O    -0.140000000     4.858000000    -5.437000000
H    -0.386000000     4.058000000    -5.901000000
H    -0.840000000     4.988000000    -4.797000000
