201
-1247.13650
C     2.516000000    -4.830000000    -1.371000000
H     1.837000000    -5.464000000    -0.807000000
C     3.158000000    -3.677000000    -0.912000000
C     4.014000000    -2.981000000    -1.749000000
H     4.538000000    -2.099000000    -1.388000000
C     2.916000000    -3.231000000     0.478000000
O     2.443000000    -4.242000000     1.381000000
H     2.151000000    -2.464000000     0.290000000
O     4.079000000    -2.551000000     1.099000000
C     3.872000000    -1.462000000     1.867000000
C     4.199000000    -0.272000000     1.179000000
H     4.671000000    -0.262000000     0.200000000
C     3.894000000     0.901000000     1.825000000
O     4.225000000     1.949000000     1.049000000
C     3.508000000     0.843000000     3.173000000
C     3.190000000     2.176000000     3.825000000
H     3.186000000     2.067000000     4.911000000
C     1.840000000     2.703000000     3.433000000
C     0.715000000     2.305000000     4.141000000
H     0.867000000     1.698000000     5.029000000
H     3.903000000     2.952000000     3.538000000
C     3.181000000    -0.347000000     3.775000000
H     2.888000000    -0.355000000     4.822000000
C     3.315000000    -1.544000000     3.139000000
C     2.944000000    -2.854000000     3.857000000
H     2.909000000    -2.693000000     4.937000000
H     3.639000000    -3.655000000     3.595000000
C     1.580000000    -3.344000000     3.422000000
C     0.478000000    -2.872000000     4.128000000
H     0.656000000    -2.174000000     4.941000000
C     1.371000000    -4.038000000     2.253000000
C     0.025000000    -4.372000000     1.916000000
H    -0.139000000    -4.817000000     0.939000000
C    -1.072000000    -3.935000000     2.658000000
O    -2.298000000    -4.064000000     2.021000000
C    -2.850000000    -2.854000000     1.395000000
C    -3.498000000    -3.174000000     0.062000000
C    -4.704000000    -2.555000000    -0.294000000
H    -5.250000000    -1.929000000     0.407000000
C    -2.836000000    -4.026000000    -0.829000000
H    -1.799000000    -4.294000000    -0.644000000
O    -3.788000000    -2.199000000     2.238000000
H    -2.028000000    -2.220000000     1.031000000
C    -0.848000000    -3.101000000     3.753000000
C    -2.023000000    -2.599000000     4.558000000
H    -1.785000000    -2.502000000     5.619000000
H    -2.825000000    -3.336000000     4.643000000
C    -2.417000000    -1.229000000     3.991000000
C    -1.991000000    -0.068000000     4.646000000
H    -1.264000000    -0.184000000     5.446000000
C    -3.306000000    -1.105000000     2.867000000
C    -3.629000000     0.166000000     2.402000000
H    -4.257000000     0.245000000     1.519000000
C    -3.162000000     1.304000000     3.028000000
O    -3.453000000     2.576000000     2.476000000
C    -2.520000000     3.123000000     1.551000000
C    -3.252000000     3.730000000     0.383000000
C    -4.470000000     3.240000000    -0.156000000
H    -4.930000000     2.388000000     0.337000000
C    -2.588000000     4.642000000    -0.402000000
H    -1.585000000     4.955000000    -0.123000000
O    -1.782000000     4.115000000     2.272000000
H    -1.879000000     2.289000000     1.229000000
C    -2.307000000     1.206000000     4.111000000
C    -1.695000000     2.487000000     4.683000000
H    -1.515000000     2.378000000     5.755000000
H    -2.427000000     3.296000000     4.638000000
C    -0.510000000     2.832000000     3.889000000
C    -0.590000000     3.770000000     2.849000000
C     0.541000000     4.232000000     2.104000000
H     0.401000000     4.881000000     1.243000000
C     1.692000000     3.524000000     2.286000000
O     2.750000000     3.763000000     1.424000000
C     3.136000000     2.729000000     0.507000000
H     2.330000000     1.981000000     0.477000000
C     3.378000000     3.182000000    -0.880000000
C     4.026000000     2.386000000    -1.803000000
H     4.348000000     1.385000000    -1.527000000
C     2.908000000     4.427000000    -1.274000000
H     2.472000000     5.084000000    -0.525000000
C     2.988000000     4.851000000    -2.590000000
O     2.428000000     5.979000000    -3.091000000
C     3.643000000     4.000000000    -3.522000000
H     3.771000000     4.280000000    -4.565000000
C     4.201000000     2.809000000    -3.105000000
O     4.913000000     2.041000000    -4.020000000
C     5.530000000     0.822000000    -3.704000000
C     4.962000000    -0.411000000    -4.078000000
H     3.945000000    -0.517000000    -4.446000000
C     6.772000000     0.951000000    -3.091000000
H     7.155000000     1.943000000    -2.867000000
C     7.497000000    -0.202000000    -2.833000000
H     8.463000000    -0.140000000    -2.338000000
C     6.954000000    -1.435000000    -3.072000000
H     7.579000000    -2.258000000    -2.734000000
C     5.700000000    -1.520000000    -3.691000000
O     5.212000000    -2.825000000    -3.805000000
C     4.238000000    -3.429000000    -3.067000000
C     3.474000000    -4.501000000    -3.528000000
H     3.681000000    -4.888000000    -4.523000000
C     2.568000000    -5.169000000    -2.675000000
O     1.931000000    -6.272000000    -3.248000000
C     0.640000000    -6.632000000    -2.991000000
C    -0.265000000    -5.581000000    -3.152000000
H     0.115000000    -4.586000000    -3.368000000
C     0.227000000    -7.891000000    -2.570000000
H     0.944000000    -8.704000000    -2.488000000
C    -1.134000000    -8.095000000    -2.359000000
H    -1.543000000    -9.075000000    -2.128000000
C    -1.982000000    -7.110000000    -2.540000000
H    -3.031000000    -7.352000000    -2.391000000
C    -1.601000000    -5.812000000    -2.993000000
O    -2.579000000    -4.785000000    -3.138000000
C    -3.307000000    -4.219000000    -2.105000000
C    -4.448000000    -3.494000000    -2.514000000
H    -4.840000000    -3.482000000    -3.528000000
C    -5.143000000    -2.666000000    -1.640000000
O    -6.240000000    -1.960000000    -2.024000000
C    -6.599000000    -0.675000000    -1.509000000
C    -6.007000000     0.525000000    -1.975000000
H    -5.219000000     0.425000000    -2.716000000
C    -7.649000000    -0.612000000    -0.638000000
H    -7.997000000    -1.521000000    -0.152000000
C    -8.188000000     0.570000000    -0.228000000
H    -9.059000000     0.520000000     0.420000000
C    -7.563000000     1.794000000    -0.603000000
H    -7.979000000     2.767000000    -0.351000000
C    -6.546000000     1.780000000    -1.558000000
O    -5.909000000     2.925000000    -2.069000000
C    -4.896000000     3.575000000    -1.444000000
C    -4.270000000     4.563000000    -2.155000000
H    -4.535000000     4.797000000    -3.183000000
C    -3.021000000     5.003000000    -1.687000000
O    -2.330000000     5.826000000    -2.560000000
C    -1.127000000     6.409000000    -2.261000000
C    -1.036000000     7.637000000    -1.627000000
H    -1.951000000     8.126000000    -1.303000000
C     0.144000000     8.305000000    -1.459000000
H     0.149000000     9.311000000    -1.045000000
C     1.256000000     7.748000000    -1.972000000
H     2.118000000     8.403000000    -2.069000000
C     1.236000000     6.494000000    -2.527000000
C     0.056000000     5.834000000    -2.708000000
H     0.064000000     4.829000000    -3.121000000
O    -5.070000000    -1.644000000    -7.542000000
H    -4.753000000    -1.048000000    -8.220000000
H    -5.972000000    -1.837000000    -7.795000000
O    -1.165000000    -0.127000000    -9.872000000
H    -1.246000000    -0.124000000    -8.919000000
H    -0.926000000     0.773000000   -10.095000000
O    -0.005000000     1.912000000    -2.068000000
H    -0.315000000     1.620000000    -1.211000000
H     0.578000000     1.212000000    -2.362000000
O    -5.064000000     1.908000000    -5.203000000
H    -4.237000000     2.006000000    -4.732000000
H    -5.272000000     0.977000000    -5.131000000
O    -2.901000000    -2.940000000    -6.245000000
H    -3.425000000    -2.524000000    -6.929000000
H    -2.628000000    -2.218000000    -5.680000000
O     2.022000000    -5.084000000    -7.051000000
H     1.849000000    -5.402000000    -7.937000000
H     1.242000000    -4.579000000    -6.822000000
O     2.009000000     3.885000000    -6.488000000
H     1.702000000     3.146000000    -5.963000000
H     2.834000000     3.584000000    -6.867000000
O     1.432000000     1.732000000    -8.270000000
H     0.672000000     1.287000000    -7.896000000
H     2.169000000     1.437000000    -7.735000000
O     2.008000000    -0.746000000    -5.729000000
H     2.189000000    -1.211000000    -6.545000000
H     1.213000000    -1.157000000    -5.390000000
O    -3.521000000     2.779000000    -8.396000000
H    -3.095000000     3.634000000    -8.456000000
H    -3.405000000     2.517000000    -7.482000000
O    -7.696000000    -2.226000000    -4.429000000
H    -7.975000000    -1.332000000    -4.236000000
H    -6.757000000    -2.229000000    -4.242000000
O    -0.122000000    -3.469000000    -6.505000000
H    -0.083000000    -2.759000000    -5.864000000
H    -1.052000000    -3.555000000    -6.711000000
O    -1.161000000     0.416000000    -7.119000000
H    -2.079000000     0.649000000    -6.983000000
H    -0.995000000    -0.282000000    -6.485000000
O    -4.200000000    -5.500000000    -5.649000000
H    -3.772000000    -4.717000000    -5.995000000
H    -4.018000000    -5.477000000    -4.709000000
O     3.024000000    -2.342000000    -8.121000000
H     2.685000000    -2.352000000    -9.016000000
H     2.603000000    -3.091000000    -7.698000000
O    -2.210000000     1.626000000    -4.011000000
H    -1.783000000     1.663000000    -3.155000000
H    -2.109000000     0.716000000    -4.290000000
O    -4.968000000    -0.769000000    -4.962000000
H    -4.170000000    -1.191000000    -4.647000000
H    -5.060000000    -1.074000000    -5.865000000
O     1.127000000     1.721000000    -5.094000000
H     0.580000000     1.767000000    -4.310000000
H     1.325000000     0.790000000    -5.193000000
O    -0.980000000     3.549000000    -5.685000000
H    -0.289000000     2.928000000    -5.919000000
H    -1.402000000     3.160000000    -4.919000000
