201
-1278.85598
C     1.466000000    -4.716000000    -1.551000000
H     0.773000000    -5.305000000    -0.956000000
C     2.294000000    -3.756000000    -1.055000000
C     3.151000000    -3.092000000    -1.984000000
H     3.874000000    -2.365000000    -1.622000000
C     2.422000000    -3.329000000     0.383000000
O     1.801000000    -4.307000000     1.337000000
H     1.851000000    -2.405000000     0.556000000
O     3.797000000    -3.003000000     0.778000000
C     3.870000000    -1.883000000     1.560000000
C     4.356000000    -0.815000000     0.885000000
H     4.783000000    -0.950000000    -0.105000000
C     4.319000000     0.457000000     1.516000000
O     4.644000000     1.567000000     0.736000000
C     3.842000000     0.539000000     2.846000000
C     3.894000000     1.850000000     3.622000000
H     3.874000000     1.762000000     4.710000000
C     2.664000000     2.608000000     3.249000000
C     1.477000000     2.542000000     4.031000000
H     1.555000000     1.935000000     4.929000000
H     4.806000000     2.420000000     3.436000000
C     3.510000000    -0.651000000     3.532000000
H     3.175000000    -0.551000000     4.561000000
C     3.509000000    -1.888000000     2.924000000
C     2.922000000    -3.094000000     3.704000000
H     3.197000000    -2.906000000     4.744000000
H     3.331000000    -4.031000000     3.318000000
C     1.446000000    -3.156000000     3.435000000
C     0.479000000    -2.582000000     4.255000000
H     0.784000000    -2.066000000     5.162000000
C     0.983000000    -3.794000000     2.325000000
C    -0.350000000    -3.927000000     2.052000000
H    -0.677000000    -4.404000000     1.131000000
C    -1.284000000    -3.312000000     2.871000000
O    -2.595000000    -3.357000000     2.453000000
C    -3.082000000    -2.261000000     1.723000000
C    -3.902000000    -2.626000000     0.499000000
C    -4.916000000    -1.738000000     0.066000000
H    -5.144000000    -0.787000000     0.541000000
C    -3.526000000    -3.741000000    -0.230000000
H    -2.742000000    -4.329000000     0.239000000
O    -3.868000000    -1.595000000     2.751000000
H    -2.272000000    -1.580000000     1.423000000
C    -0.904000000    -2.622000000     4.008000000
C    -1.923000000    -1.930000000     4.877000000
H    -1.507000000    -1.916000000     5.886000000
H    -2.812000000    -2.538000000     5.054000000
C    -2.239000000    -0.639000000     4.288000000
C    -1.553000000     0.494000000     4.731000000
H    -0.723000000     0.444000000     5.431000000
C    -3.308000000    -0.540000000     3.347000000
C    -3.616000000     0.746000000     2.831000000
H    -4.380000000     0.975000000     2.092000000
C    -2.817000000     1.826000000     3.185000000
O    -2.964000000     3.053000000     2.579000000
C    -1.975000000     3.255000000     1.538000000
C    -2.607000000     3.543000000     0.253000000
C    -3.920000000     3.327000000    -0.013000000
H    -4.528000000     2.929000000     0.795000000
C    -1.859000000     4.202000000    -0.721000000
H    -0.815000000     4.427000000    -0.519000000
O    -0.996000000     4.282000000     1.920000000
H    -1.434000000     2.325000000     1.305000000
C    -1.792000000     1.721000000     4.105000000
C    -0.985000000     2.871000000     4.505000000
H    -0.760000000     2.816000000     5.572000000
H    -1.606000000     3.760000000     4.383000000
C     0.272000000     3.058000000     3.627000000
C     0.212000000     3.865000000     2.474000000
C     1.403000000     4.081000000     1.744000000
H     1.456000000     4.684000000     0.842000000
C     2.587000000     3.428000000     2.081000000
O     3.538000000     3.505000000     1.182000000
C     3.585000000     2.428000000     0.221000000
H     2.743000000     1.720000000     0.185000000
C     3.841000000     2.912000000    -1.184000000
C     4.537000000     2.024000000    -2.048000000
H     4.930000000     1.092000000    -1.651000000
C     3.268000000     4.046000000    -1.703000000
H     2.694000000     4.683000000    -1.034000000
C     3.440000000     4.331000000    -3.034000000
O     3.043000000     5.553000000    -3.646000000
C     4.183000000     3.492000000    -3.893000000
H     4.290000000     3.747000000    -4.945000000
C     4.731000000     2.336000000    -3.380000000
O     5.479000000     1.597000000    -4.227000000
C     5.827000000     0.255000000    -4.037000000
C     4.883000000    -0.695000000    -4.320000000
H     4.020000000    -0.540000000    -4.963000000
C     7.058000000    -0.072000000    -3.537000000
H     7.743000000     0.757000000    -3.379000000
C     7.288000000    -1.439000000    -3.290000000
H     8.292000000    -1.734000000    -2.997000000
C     6.315000000    -2.402000000    -3.497000000
H     6.427000000    -3.452000000    -3.239000000
C     5.111000000    -2.024000000    -4.039000000
O     4.135000000    -2.993000000    -4.196000000
C     3.168000000    -3.424000000    -3.333000000
C     2.318000000    -4.430000000    -3.867000000
H     2.351000000    -4.746000000    -4.906000000
C     1.352000000    -4.974000000    -2.960000000
O     0.632000000    -6.093000000    -3.322000000
C    -0.560000000    -6.481000000    -2.644000000
C    -1.651000000    -5.601000000    -2.774000000
H    -1.644000000    -4.713000000    -3.400000000
C    -0.730000000    -7.659000000    -1.981000000
H     0.148000000    -8.300000000    -1.967000000
C    -1.934000000    -7.974000000    -1.350000000
H    -2.151000000    -8.967000000    -0.966000000
C    -3.005000000    -7.052000000    -1.461000000
H    -3.967000000    -7.332000000    -1.040000000
C    -2.835000000    -5.854000000    -2.076000000
O    -3.947000000    -5.041000000    -2.156000000
C    -4.201000000    -3.989000000    -1.459000000
C    -5.213000000    -3.135000000    -1.897000000
H    -5.740000000    -3.427000000    -2.802000000
C    -5.564000000    -2.008000000    -1.131000000
O    -6.654000000    -1.257000000    -1.583000000
C    -6.985000000     0.010000000    -1.055000000
C    -6.381000000     1.143000000    -1.640000000
H    -5.625000000     1.079000000    -2.419000000
C    -7.789000000     0.140000000     0.044000000
H    -8.320000000    -0.735000000     0.410000000
C    -8.025000000     1.402000000     0.607000000
H    -8.727000000     1.562000000     1.421000000
C    -7.408000000     2.526000000     0.046000000
H    -7.528000000     3.402000000     0.678000000
C    -6.497000000     2.379000000    -0.986000000
O    -5.779000000     3.498000000    -1.459000000
C    -4.483000000     3.699000000    -1.197000000
C    -3.739000000     4.259000000    -2.214000000
H    -4.193000000     4.493000000    -3.173000000
C    -2.397000000     4.515000000    -1.936000000
O    -1.646000000     4.909000000    -3.059000000
C    -0.538000000     5.721000000    -3.016000000
C    -0.668000000     7.005000000    -2.544000000
H    -1.638000000     7.419000000    -2.283000000
C     0.438000000     7.768000000    -2.256000000
H     0.302000000     8.724000000    -1.758000000
C     1.674000000     7.325000000    -2.570000000
H     2.521000000     7.934000000    -2.263000000
C     1.824000000     6.161000000    -3.306000000
C     0.736000000     5.306000000    -3.421000000
H     0.828000000     4.319000000    -3.867000000
O    -3.828000000     4.353000000    -6.505000000
H    -4.442000000     3.646000000    -6.704000000
H    -3.030000000     3.905000000    -6.224000000
O    -7.652000000    -1.336000000    -4.571000000
H    -8.109000000    -1.432000000    -3.736000000
H    -7.931000000    -0.481000000    -4.899000000
O    -2.970000000    -2.434000000    -8.826000000
H    -3.543000000    -3.156000000    -8.568000000
H    -3.477000000    -1.645000000    -8.638000000
O     2.972000000     1.740000000    -6.609000000
H     2.643000000     0.888000000    -6.323000000
H     3.022000000     1.670000000    -7.563000000
O    -5.645000000     2.454000000    -6.846000000
H    -5.477000000     1.760000000    -6.209000000
H    -5.679000000     2.003000000    -7.689000000
O    -3.339000000    -3.155000000    -5.807000000
H    -2.464000000    -3.263000000    -6.179000000
H    -3.283000000    -2.352000000    -5.290000000
O    -0.778000000    -3.902000000    -9.931000000
H    -0.890000000    -4.784000000    -9.575000000
H    -1.658000000    -3.526000000    -9.919000000
O     0.486000000    -1.390000000    -8.833000000
H     0.037000000    -2.228000000    -8.945000000
H     0.971000000    -1.267000000    -9.648000000
O     1.484000000    -0.520000000    -6.293000000
H     0.891000000    -0.346000000    -7.024000000
H     0.952000000    -1.008000000    -5.664000000
O    -0.732000000    -3.882000000    -6.089000000
H    -0.571000000    -3.070000000    -5.608000000
H     0.032000000    -3.981000000    -6.657000000
O    -2.467000000     0.827000000    -6.777000000
H    -2.156000000     1.677000000    -6.465000000
H    -2.496000000     0.281000000    -5.991000000
O    -2.847000000    -6.093000000    -6.147000000
H    -2.954000000    -5.267000000    -5.675000000
H    -2.119000000    -5.933000000    -6.748000000
O    -4.526000000    -0.397000000    -7.935000000
H    -5.062000000    -0.675000000    -7.193000000
H    -3.740000000    -0.024000000    -7.536000000
O    -5.692000000    -4.811000000    -5.442000000
H    -6.292000000    -4.178000000    -5.837000000
H    -4.906000000    -4.303000000    -5.241000000
O     2.516000000    -3.427000000    -7.004000000
H     2.481000000    -2.561000000    -6.599000000
H     3.127000000    -3.327000000    -7.734000000
O    -1.626000000     3.051000000    -5.585000000
H    -1.769000000     3.449000000    -4.727000000
H    -0.723000000     3.276000000    -5.807000000
O    -5.061000000     0.278000000    -5.014000000
H    -4.156000000     0.033000000    -4.824000000
H    -5.566000000    -0.516000000    -4.837000000
O    -1.523000000     0.275000000    -9.201000000
H    -2.149000000     0.411000000    -8.490000000
H    -0.798000000    -0.199000000    -8.795000000
O     1.005000000     3.763000000    -6.258000000
H     1.729000000     3.193000000    -5.998000000
H     1.194000000     3.991000000    -7.168000000
