201
-1268.91648
C     0.916000000    -5.033000000    -0.628000000
H    -0.076000000    -5.089000000    -0.188000000
C     1.937000000    -4.273000000    -0.115000000
C     3.108000000    -4.153000000    -0.882000000
H     3.969000000    -3.621000000    -0.486000000
C     1.730000000    -3.612000000     1.247000000
O     0.698000000    -4.259000000     2.091000000
H     1.299000000    -2.606000000     1.138000000
O     2.981000000    -3.456000000     1.941000000
C     3.325000000    -2.215000000     2.522000000
C     4.175000000    -1.322000000     1.856000000
H     4.657000000    -1.733000000     0.973000000
C     4.281000000     0.047000000     2.317000000
O     4.816000000     0.921000000     1.414000000
C     3.503000000     0.415000000     3.469000000
C     3.514000000     1.832000000     4.025000000
H     3.218000000     1.740000000     5.072000000
C     2.487000000     2.760000000     3.386000000
C     1.234000000     3.003000000     3.997000000
H     1.028000000     2.627000000     4.995000000
H     4.489000000     2.324000000     4.050000000
C     2.775000000    -0.542000000     4.139000000
H     2.321000000    -0.196000000     5.064000000
C     2.606000000    -1.831000000     3.680000000
C     1.717000000    -2.856000000     4.341000000
H     1.787000000    -2.656000000     5.412000000
H     2.150000000    -3.848000000     4.193000000
C     0.277000000    -2.722000000     3.916000000
C    -0.641000000    -1.799000000     4.525000000
H    -0.324000000    -1.233000000     5.397000000
C    -0.178000000    -3.517000000     2.800000000
C    -1.511000000    -3.483000000     2.408000000
H    -1.775000000    -4.044000000     1.516000000
C    -2.408000000    -2.618000000     3.048000000
O    -3.579000000    -2.421000000     2.453000000
C    -3.725000000    -1.283000000     1.510000000
C    -4.557000000    -1.726000000     0.320000000
C    -5.408000000    -0.810000000    -0.370000000
H    -5.518000000     0.187000000     0.048000000
C    -4.329000000    -2.959000000    -0.258000000
H    -3.590000000    -3.587000000     0.232000000
O    -4.472000000    -0.335000000     2.217000000
H    -2.716000000    -0.948000000     1.225000000
C    -1.985000000    -1.814000000     4.135000000
C    -2.996000000    -0.901000000     4.795000000
H    -2.785000000    -0.713000000     5.850000000
H    -4.006000000    -1.316000000     4.794000000
C    -3.025000000     0.464000000     4.060000000
C    -2.200000000     1.527000000     4.398000000
H    -1.595000000     1.476000000     5.299000000
C    -3.669000000     0.653000000     2.849000000
C    -3.594000000     1.792000000     2.107000000
H    -4.198000000     1.846000000     1.204000000
C    -2.820000000     2.861000000     2.472000000
O    -2.700000000     3.822000000     1.510000000
C    -1.491000000     3.786000000     0.664000000
C    -1.759000000     4.190000000    -0.813000000
C    -2.943000000     3.620000000    -1.394000000
H    -3.672000000     2.995000000    -0.883000000
C    -0.899000000     5.005000000    -1.512000000
H    -0.026000000     5.429000000    -1.023000000
O    -0.559000000     4.654000000     1.265000000
H    -1.129000000     2.748000000     0.663000000
C    -2.109000000     2.702000000     3.640000000
C    -1.123000000     3.823000000     4.078000000
H    -0.946000000     3.785000000     5.154000000
H    -1.553000000     4.806000000     3.873000000
C     0.186000000     3.599000000     3.380000000
C     0.373000000     4.022000000     2.040000000
C     1.646000000     3.890000000     1.439000000
H     1.813000000     4.291000000     0.443000000
C     2.706000000     3.274000000     2.123000000
O     3.842000000     2.991000000     1.356000000
C     3.899000000     1.685000000     0.607000000
H     2.938000000     1.149000000     0.579000000
C     4.405000000     1.846000000    -0.812000000
C     5.128000000     0.810000000    -1.369000000
H     5.557000000     0.059000000    -0.711000000
C     3.879000000     2.806000000    -1.580000000
H     3.348000000     3.604000000    -1.068000000
C     4.187000000     2.781000000    -2.974000000
O     3.612000000     3.573000000    -3.967000000
C     4.814000000     1.656000000    -3.599000000
H     4.816000000     1.682000000    -4.686000000
C     5.371000000     0.718000000    -2.738000000
O     6.017000000    -0.315000000    -3.370000000
C     6.108000000    -1.592000000    -2.998000000
C     5.121000000    -2.523000000    -2.992000000
H     4.125000000    -2.198000000    -3.283000000
C     7.410000000    -2.067000000    -2.743000000
H     8.214000000    -1.337000000    -2.785000000
C     7.732000000    -3.374000000    -2.469000000
H     8.775000000    -3.679000000    -2.474000000
C     6.676000000    -4.357000000    -2.443000000
H     6.913000000    -5.410000000    -2.315000000
C     5.376000000    -3.856000000    -2.678000000
O     4.405000000    -4.833000000    -2.865000000
C     3.282000000    -4.867000000    -2.068000000
C     2.179000000    -5.453000000    -2.661000000
H     2.298000000    -6.024000000    -3.579000000
C     0.941000000    -5.475000000    -1.941000000
O    -0.084000000    -6.131000000    -2.562000000
C    -1.354000000    -6.358000000    -2.029000000
C    -2.362000000    -5.415000000    -2.245000000
H    -2.225000000    -4.534000000    -2.867000000
C    -1.721000000    -7.514000000    -1.312000000
H    -0.984000000    -8.301000000    -1.170000000
C    -2.985000000    -7.585000000    -0.739000000
H    -3.346000000    -8.428000000    -0.156000000
C    -3.898000000    -6.590000000    -0.879000000
H    -4.935000000    -6.753000000    -0.597000000
C    -3.618000000    -5.519000000    -1.654000000
O    -4.678000000    -4.673000000    -1.980000000
C    -4.935000000    -3.399000000    -1.447000000
C    -5.772000000    -2.480000000    -2.120000000
H    -6.233000000    -2.734000000    -3.071000000
C    -5.964000000    -1.195000000    -1.538000000
O    -6.904000000    -0.342000000    -2.064000000
C    -6.815000000     1.032000000    -2.091000000
C    -5.622000000     1.578000000    -2.639000000
H    -4.771000000     0.945000000    -2.880000000
C    -7.912000000     1.889000000    -1.783000000
H    -8.868000000     1.577000000    -1.371000000
C    -7.724000000     3.245000000    -2.017000000
H    -8.626000000     3.829000000    -1.856000000
C    -6.541000000     3.757000000    -2.530000000
H    -6.427000000     4.823000000    -2.710000000
C    -5.446000000     2.945000000    -2.797000000
O    -4.261000000     3.460000000    -3.344000000
C    -3.210000000     3.926000000    -2.717000000
C    -2.357000000     4.777000000    -3.407000000
H    -2.544000000     4.984000000    -4.458000000
C    -1.261000000     5.351000000    -2.791000000
O    -0.381000000     6.216000000    -3.560000000
C     0.960000000     6.042000000    -3.472000000
C     1.687000000     7.033000000    -2.709000000
H     1.120000000     7.934000000    -2.490000000
C     3.002000000     6.851000000    -2.422000000
H     3.575000000     7.534000000    -1.800000000
C     3.648000000     5.721000000    -2.966000000
H     4.705000000     5.558000000    -2.769000000
C     2.949000000     4.730000000    -3.618000000
C     1.572000000     4.854000000    -3.920000000
H     1.117000000     4.016000000    -4.442000000
O     0.554000000     1.697000000    -9.092000000
H     1.130000000     2.295000000    -8.616000000
H     0.956000000     1.616000000    -9.957000000
O     1.827000000     4.057000000    -7.045000000
H     2.216000000     3.746000000    -7.862000000
H     1.720000000     3.268000000    -6.514000000
O    -3.287000000     0.586000000    -5.384000000
H    -2.384000000     0.286000000    -5.285000000
H    -3.732000000    -0.135000000    -5.828000000
O    -1.969000000    -2.611000000    -7.516000000
H    -1.219000000    -3.192000000    -7.643000000
H    -1.643000000    -1.744000000    -7.757000000
O     2.141000000     1.472000000    -6.188000000
H     2.840000000     1.943000000    -5.735000000
H     1.850000000     0.812000000    -5.559000000
O     0.047000000    -6.466000000    -5.626000000
H     0.367000000    -7.018000000    -4.913000000
H     0.637000000    -5.712000000    -5.628000000
O     2.778000000    -1.669000000    -6.934000000
H     2.285000000    -1.017000000    -6.436000000
H     3.400000000    -1.156000000    -7.450000000
O    -0.938000000     2.502000000    -4.956000000
H    -1.075000000     2.593000000    -4.013000000
H    -0.744000000     1.573000000    -5.082000000
O     3.887000000    -4.400000000    -5.892000000
H     3.670000000    -4.752000000    -5.029000000
H     3.375000000    -3.594000000    -5.958000000
O    -4.523000000     3.122000000    -6.427000000
H    -4.230000000     2.639000000    -5.654000000
H    -3.858000000     2.936000000    -7.091000000
O    -4.562000000    -1.719000000    -6.467000000
H    -4.570000000    -2.473000000    -5.878000000
H    -3.905000000    -1.937000000    -7.127000000
O     0.966000000    -3.750000000    -5.231000000
H     0.206000000    -3.452000000    -4.732000000
H     1.300000000    -2.958000000    -5.654000000
O    -1.111000000     0.163000000    -7.599000000
H    -0.750000000     0.219000000    -6.714000000
H    -0.538000000     0.720000000    -8.127000000
O     4.367000000     0.192000000    -8.377000000
H     3.877000000     0.996000000    -8.207000000
H     4.413000000     0.136000000    -9.332000000
O    -1.555000000    -2.923000000    -4.527000000
H    -2.186000000    -3.228000000    -5.179000000
H    -1.455000000    -1.988000000    -4.710000000
O     3.093000000    -3.624000000    -9.197000000
H     3.708000000    -4.217000000    -8.763000000
H     2.489000000    -3.358000000    -8.504000000
O    -3.303000000     1.655000000    -8.523000000
H    -2.692000000     1.175000000    -7.965000000
H    -2.747000000     2.105000000    -9.158000000
O    -1.228000000     4.401000000    -6.849000000
H    -1.261000000     3.697000000    -6.201000000
H    -0.298000000     4.499000000    -7.050000000
O    -0.311000000    -4.454000000    -8.419000000
H     0.410000000    -4.719000000    -8.991000000
H    -0.258000000    -5.053000000    -7.674000000
