201
-1242.35633
C     0.337000000    -5.251000000    -1.024000000
H    -0.247000000    -5.737000000    -0.247000000
C     1.387000000    -4.343000000    -0.736000000
C     2.108000000    -3.753000000    -1.760000000
H     2.805000000    -2.951000000    -1.530000000
C     1.567000000    -3.770000000     0.673000000
O     0.974000000    -4.613000000     1.685000000
H     1.050000000    -2.804000000     0.778000000
O     2.984000000    -3.582000000     0.984000000
C     3.378000000    -2.471000000     1.703000000
C     4.030000000    -1.439000000     0.998000000
H     4.259000000    -1.545000000    -0.059000000
C     4.318000000    -0.284000000     1.672000000
O     4.862000000     0.716000000     0.911000000
C     3.943000000    -0.085000000     3.002000000
C     4.186000000     1.256000000     3.580000000
H     4.333000000     1.078000000     4.647000000
C     3.046000000     2.186000000     3.244000000
C     1.920000000     2.262000000     4.063000000
H     1.885000000     1.597000000     4.922000000
H     5.136000000     1.718000000     3.304000000
C     3.355000000    -1.138000000     3.700000000
H     3.000000000    -0.960000000     4.712000000
C     2.984000000    -2.291000000     3.099000000
C     2.228000000    -3.328000000     3.935000000
H     2.569000000    -3.305000000     4.973000000
H     2.646000000    -4.267000000     3.565000000
C     0.712000000    -3.393000000     3.781000000
C    -0.073000000    -2.717000000     4.698000000
H     0.368000000    -2.337000000     5.616000000
C     0.138000000    -3.978000000     2.619000000
C    -1.210000000    -3.936000000     2.352000000
H    -1.596000000    -4.366000000     1.431000000
C    -1.970000000    -3.106000000     3.140000000
O    -3.336000000    -2.914000000     2.796000000
C    -3.603000000    -1.734000000     1.997000000
C    -4.434000000    -1.945000000     0.701000000
C    -5.471000000    -1.015000000     0.349000000
H    -5.718000000    -0.228000000     1.058000000
C    -4.002000000    -2.870000000    -0.328000000
H    -3.195000000    -3.546000000    -0.057000000
O    -4.102000000    -0.765000000     2.864000000
H    -2.673000000    -1.427000000     1.496000000
C    -1.429000000    -2.534000000     4.267000000
C    -2.284000000    -1.497000000     5.026000000
H    -1.962000000    -1.295000000     6.049000000
H    -3.317000000    -1.850000000     5.026000000
C    -2.283000000    -0.126000000     4.317000000
C    -1.374000000     0.857000000     4.640000000
H    -0.583000000     0.609000000     5.344000000
C    -3.171000000     0.149000000     3.349000000
C    -3.166000000     1.397000000     2.771000000
H    -3.834000000     1.633000000     1.947000000
C    -2.292000000     2.405000000     3.152000000
O    -2.379000000     3.590000000     2.475000000
C    -1.308000000     3.830000000     1.458000000
C    -1.697000000     4.363000000     0.063000000
C    -2.794000000     3.823000000    -0.533000000
H    -3.296000000     2.994000000    -0.039000000
C    -0.941000000     5.334000000    -0.684000000
H    -0.129000000     5.849000000    -0.176000000
O    -0.217000000     4.520000000     2.083000000
H    -0.950000000     2.807000000     1.268000000
C    -1.352000000     2.108000000     4.137000000
C    -0.369000000     3.128000000     4.682000000
H    -0.042000000     2.835000000     5.682000000
H    -0.820000000     4.122000000     4.670000000
C     0.886000000     3.176000000     3.782000000
C     0.878000000     3.872000000     2.570000000
C     2.008000000     3.843000000     1.769000000
H     2.050000000     4.329000000     0.798000000
C     3.108000000     2.978000000     2.109000000
O     4.069000000     2.803000000     1.112000000
C     3.935000000     1.631000000     0.349000000
H     2.936000000     1.172000000     0.351000000
C     4.166000000     1.911000000    -1.152000000
C     4.764000000     0.959000000    -1.914000000
H     4.959000000     0.010000000    -1.423000000
C     3.753000000     3.057000000    -1.790000000
H     3.319000000     3.872000000    -1.216000000
C     4.012000000     3.267000000    -3.159000000
O     3.509000000     4.399000000    -3.834000000
C     4.702000000     2.356000000    -3.876000000
H     4.867000000     2.483000000    -4.943000000
C     5.064000000     1.192000000    -3.275000000
O     5.769000000     0.212000000    -3.984000000
C     5.536000000    -1.181000000    -3.807000000
C     4.256000000    -1.695000000    -3.887000000
H     3.430000000    -1.009000000    -4.057000000
C     6.582000000    -2.121000000    -3.737000000
H     7.606000000    -1.771000000    -3.637000000
C     6.390000000    -3.536000000    -3.689000000
H     7.215000000    -4.221000000    -3.510000000
C     5.099000000    -3.948000000    -3.665000000
H     4.853000000    -4.984000000    -3.447000000
C     4.041000000    -3.018000000    -3.855000000
O     2.780000000    -3.563000000    -4.006000000
C     1.980000000    -4.146000000    -3.061000000
C     1.172000000    -5.247000000    -3.354000000
H     1.164000000    -5.640000000    -4.368000000
C     0.324000000    -5.777000000    -2.360000000
O    -0.542000000    -6.705000000    -2.687000000
C    -1.846000000    -6.536000000    -2.256000000
C    -2.500000000    -5.326000000    -2.560000000
H    -1.937000000    -4.510000000    -3.006000000
C    -2.502000000    -7.512000000    -1.530000000
H    -2.003000000    -8.407000000    -1.169000000
C    -3.822000000    -7.323000000    -1.195000000
H    -4.419000000    -8.123000000    -0.765000000
C    -4.503000000    -6.116000000    -1.392000000
H    -5.565000000    -6.010000000    -1.184000000
C    -3.824000000    -5.111000000    -2.078000000
O    -4.499000000    -3.950000000    -2.388000000
C    -4.793000000    -2.981000000    -1.489000000
C    -5.777000000    -2.039000000    -1.800000000
H    -6.306000000    -2.033000000    -2.750000000
C    -6.105000000    -1.061000000    -0.848000000
O    -7.063000000    -0.124000000    -1.079000000
C    -6.764000000     1.257000000    -1.253000000
C    -5.559000000     1.631000000    -1.847000000
H    -4.778000000     0.932000000    -2.135000000
C    -7.725000000     2.213000000    -0.924000000
H    -8.621000000     1.889000000    -0.401000000
C    -7.272000000     3.624000000    -0.856000000
H    -7.874000000     4.414000000    -0.416000000
C    -6.084000000     4.004000000    -1.450000000
H    -5.753000000     5.036000000    -1.378000000
C    -5.254000000     2.950000000    -1.944000000
O    -4.058000000     3.306000000    -2.518000000
C    -3.072000000     4.059000000    -1.895000000
C    -2.337000000     5.026000000    -2.614000000
H    -2.632000000     5.263000000    -3.634000000
C    -1.266000000     5.599000000    -2.008000000
O    -0.540000000     6.515000000    -2.707000000
C     0.803000000     6.611000000    -2.822000000
C     1.547000000     7.845000000    -2.872000000
H     1.031000000     8.785000000    -2.690000000
C     2.965000000     7.876000000    -2.905000000
H     3.503000000     8.819000000    -2.869000000
C     3.610000000     6.656000000    -3.028000000
H     4.693000000     6.754000000    -3.049000000
C     2.895000000     5.480000000    -3.215000000
C     1.492000000     5.422000000    -3.085000000
H     0.982000000     4.512000000    -3.389000000
O    -4.649000000    -4.627000000    -6.850000000
H    -3.791000000    -4.222000000    -6.725000000
H    -4.517000000    -5.253000000    -7.562000000
O    -2.646000000    -2.544000000    -9.294000000
H    -1.728000000    -2.492000000    -9.562000000
H    -2.682000000    -2.061000000    -8.469000000
O     0.151000000     3.324000000    -9.885000000
H     0.586000000     3.273000000    -9.034000000
H     0.706000000     2.806000000   -10.469000000
O     1.703000000     2.732000000    -7.656000000
H     2.609000000     3.008000000    -7.517000000
H     1.699000000     1.801000000    -7.430000000
O    -4.505000000     0.805000000    -5.058000000
H    -3.634000000     0.548000000    -4.755000000
H    -4.723000000     0.162000000    -5.732000000
O    -2.184000000    -1.079000000    -7.120000000
H    -2.071000000    -0.704000000    -6.247000000
H    -1.401000000    -0.809000000    -7.600000000
O     1.170000000    -4.057000000    -9.107000000
H     0.734000000    -4.888000000    -8.921000000
H     1.931000000    -4.050000000    -8.526000000
O     1.753000000     0.357000000    -6.945000000
H     2.584000000    -0.118000000    -6.908000000
H     1.257000000     0.030000000    -6.195000000
O     0.554000000    -2.977000000    -6.501000000
H     0.600000000    -2.115000000    -6.088000000
H     0.587000000    -2.795000000    -7.440000000
O    -2.000000000     2.515000000    -5.600000000
H    -1.987000000     1.663000000    -5.163000000
H    -2.929000000     2.736000000    -5.666000000
O     3.069000000    -4.435000000    -7.243000000
H     3.956000000    -4.176000000    -6.993000000
H     2.500000000    -3.930000000    -6.663000000
O    -5.191000000     3.386000000    -5.505000000
H    -5.035000000     2.580000000    -5.013000000
H    -6.144000000     3.462000000    -5.544000000
O    -5.010000000    -1.067000000    -6.930000000
H    -5.586000000    -1.622000000    -7.456000000
H    -4.151000000    -1.484000000    -6.997000000
O    -1.301000000    -4.954000000    -5.986000000
H    -1.983000000    -4.543000000    -5.456000000
H    -0.563000000    -4.347000000    -5.940000000
O    -0.299000000    -0.048000000    -8.673000000
H     0.449000000    -0.075000000    -8.076000000
H     0.002000000     0.483000000    -9.410000000
O     3.799000000    -1.432000000    -7.654000000
H     4.141000000    -2.283000000    -7.381000000
H     3.988000000    -1.388000000    -8.592000000
O    -2.796000000    -3.118000000    -4.813000000
H    -3.352000000    -3.095000000    -4.034000000
H    -2.422000000    -2.238000000    -4.865000000
O    -3.565000000     1.648000000    -8.199000000
H    -2.878000000     1.967000000    -7.613000000
H    -3.091000000     1.219000000    -8.912000000
O    -0.324000000     4.415000000    -6.222000000
H    -0.905000000     3.734000000    -5.884000000
H     0.422000000     3.937000000    -6.584000000
