201
-1244.35883
C    -0.054000000    -4.741000000    -2.370000000
H    -0.993000000    -4.813000000    -1.827000000
C     1.112000000    -4.728000000    -1.529000000
C     2.320000000    -4.850000000    -2.089000000
H     3.184000000    -4.680000000    -1.451000000
C     0.987000000    -4.502000000     0.003000000
O    -0.195000000    -5.023000000     0.677000000
H     0.802000000    -3.418000000     0.019000000
O     2.192000000    -4.781000000     0.750000000
C     2.669000000    -3.756000000     1.500000000
C     3.568000000    -2.842000000     0.956000000
H     3.838000000    -2.913000000    -0.094000000
C     4.041000000    -1.723000000     1.735000000
O     4.819000000    -0.789000000     1.079000000
C     3.580000000    -1.555000000     3.037000000
C     3.947000000    -0.366000000     3.971000000
H     3.788000000    -0.742000000     4.984000000
C     3.045000000     0.802000000     3.662000000
C     1.845000000     1.006000000     4.406000000
H     1.555000000     0.242000000     5.123000000
H     5.006000000    -0.116000000     3.875000000
C     2.659000000    -2.460000000     3.576000000
H     2.232000000    -2.333000000     4.568000000
C     2.175000000    -3.559000000     2.794000000
C     1.020000000    -4.360000000     3.260000000
H     0.943000000    -4.340000000     4.349000000
H     1.148000000    -5.440000000     3.160000000
C    -0.335000000    -3.888000000     2.774000000
C    -1.218000000    -3.142000000     3.630000000
H    -0.855000000    -2.734000000     4.570000000
C    -0.905000000    -4.208000000     1.508000000
C    -2.176000000    -3.867000000     1.045000000
H    -2.546000000    -4.184000000     0.074000000
C    -2.924000000    -3.049000000     1.875000000
O    -4.086000000    -2.477000000     1.283000000
C    -4.155000000    -1.041000000     1.012000000
C    -4.907000000    -0.809000000    -0.253000000
C    -5.576000000     0.420000000    -0.331000000
H    -5.601000000     1.116000000     0.503000000
C    -4.620000000    -1.587000000    -1.375000000
H    -4.016000000    -2.482000000    -1.250000000
O    -4.705000000    -0.361000000     2.173000000
H    -3.157000000    -0.674000000     0.728000000
C    -2.487000000    -2.759000000     3.169000000
C    -3.336000000    -1.909000000     4.129000000
H    -3.012000000    -2.138000000     5.146000000
H    -4.415000000    -2.066000000     4.059000000
C    -3.031000000    -0.429000000     3.899000000
C    -1.992000000     0.140000000     4.653000000
H    -1.478000000    -0.446000000     5.411000000
C    -3.747000000     0.310000000     2.936000000
C    -3.333000000     1.586000000     2.625000000
H    -3.796000000     2.034000000     1.749000000
C    -2.291000000     2.189000000     3.355000000
O    -1.884000000     3.417000000     2.902000000
C    -0.755000000     3.487000000     2.030000000
C    -1.007000000     4.409000000     0.821000000
C    -2.267000000     4.575000000     0.295000000
H    -3.082000000     4.022000000     0.754000000
C     0.073000000     5.030000000     0.226000000
H     1.065000000     4.751000000     0.571000000
O     0.403000000     3.833000000     2.773000000
H    -0.537000000     2.513000000     1.567000000
C    -1.505000000     1.461000000     4.291000000
C    -0.349000000     2.071000000     4.987000000
H    -0.335000000     1.698000000     6.013000000
H    -0.575000000     3.134000000     5.094000000
C     0.981000000     2.041000000     4.181000000
C     1.346000000     2.963000000     3.209000000
C     2.545000000     2.829000000     2.475000000
H     2.722000000     3.409000000     1.573000000
C     3.362000000     1.748000000     2.694000000
O     4.364000000     1.550000000     1.759000000
C     4.136000000     0.481000000     0.724000000
H     3.054000000     0.321000000     0.615000000
C     4.585000000     1.063000000    -0.621000000
C     4.816000000     0.142000000    -1.669000000
H     4.686000000    -0.909000000    -1.425000000
C     4.685000000     2.477000000    -0.889000000
H     4.762000000     3.163000000    -0.049000000
C     4.823000000     2.856000000    -2.263000000
O     4.690000000     4.179000000    -2.508000000
C     5.036000000     1.933000000    -3.313000000
H     5.157000000     2.238000000    -4.349000000
C     5.069000000     0.580000000    -3.011000000
O     5.081000000    -0.318000000    -4.010000000
C     5.271000000    -1.661000000    -3.794000000
C     4.259000000    -2.612000000    -3.970000000
H     3.231000000    -2.384000000    -4.238000000
C     6.600000000    -2.039000000    -3.596000000
H     7.328000000    -1.234000000    -3.543000000
C     6.949000000    -3.383000000    -3.570000000
H     7.976000000    -3.732000000    -3.508000000
C     5.919000000    -4.327000000    -3.749000000
H     6.138000000    -5.391000000    -3.712000000
C     4.622000000    -4.019000000    -3.987000000
O     3.663000000    -5.000000000    -4.080000000
C     2.425000000    -4.962000000    -3.469000000
C     1.306000000    -4.977000000    -4.293000000
H     1.349000000    -4.976000000    -5.379000000
C     0.003000000    -4.837000000    -3.760000000
O    -1.103000000    -4.775000000    -4.639000000
C    -2.409000000    -4.589000000    -4.247000000
C    -2.990000000    -3.299000000    -4.179000000
H    -2.313000000    -2.501000000    -4.474000000
C    -3.191000000    -5.705000000    -3.840000000
H    -2.877000000    -6.740000000    -3.956000000
C    -4.469000000    -5.540000000    -3.325000000
H    -4.989000000    -6.419000000    -2.953000000
C    -5.003000000    -4.274000000    -3.260000000
H    -6.025000000    -4.183000000    -2.902000000
C    -4.306000000    -3.170000000    -3.706000000
O    -4.925000000    -1.927000000    -3.716000000
C    -5.212000000    -1.184000000    -2.627000000
C    -5.904000000     0.034000000    -2.696000000
H    -6.358000000     0.245000000    -3.661000000
C    -6.035000000     0.831000000    -1.607000000
O    -6.719000000     2.041000000    -1.647000000
C    -6.348000000     3.121000000    -0.920000000
C    -5.176000000     3.802000000    -1.289000000
H    -4.643000000     3.463000000    -2.174000000
C    -7.104000000     3.475000000     0.200000000
H    -7.953000000     2.858000000     0.483000000
C    -6.645000000     4.519000000     1.051000000
H    -7.207000000     4.838000000     1.925000000
C    -5.623000000     5.372000000     0.530000000
H    -5.316000000     6.319000000     0.966000000
C    -4.919000000     5.009000000    -0.578000000
O    -3.829000000     5.833000000    -0.987000000
C    -2.549000000     5.536000000    -0.689000000
C    -1.481000000     6.212000000    -1.253000000
H    -1.669000000     6.857000000    -2.108000000
C    -0.153000000     6.018000000    -0.812000000
O     0.877000000     6.721000000    -1.520000000
C     2.167000000     6.460000000    -1.354000000
C     2.854000000     7.165000000    -0.381000000
H     2.344000000     7.957000000     0.163000000
C     4.203000000     6.885000000    -0.182000000
H     4.703000000     7.389000000     0.642000000
C     4.789000000     5.798000000    -0.832000000
H     5.763000000     5.434000000    -0.515000000
C     4.049000000     5.188000000    -1.826000000
C     2.767000000     5.536000000    -2.172000000
H     2.194000000     4.960000000    -2.894000000
O    -1.684000000    -3.837000000    -7.351000000
H    -1.399000000    -4.490000000    -6.712000000
H    -2.522000000    -4.169000000    -7.675000000
O    -1.026000000     3.905000000    -3.503000000
H    -0.587000000     4.745000000    -3.635000000
H    -0.323000000     3.303000000    -3.259000000
O    -4.223000000     0.090000000    -6.249000000
H    -3.899000000    -0.041000000    -5.359000000
H    -3.444000000     0.019000000    -6.801000000
O    -2.310000000     5.821000000    -5.835000000
H    -2.184000000     4.927000000    -5.518000000
H    -1.696000000     6.346000000    -5.321000000
O    -2.401000000     1.915000000    -9.090000000
H    -1.790000000     1.969000000    -8.355000000
H    -2.267000000     2.730000000    -9.573000000
O     1.095000000     2.326000000    -2.699000000
H     1.458000000     2.316000000    -3.584000000
H     1.019000000     1.402000000    -2.460000000
O     3.181000000     0.330000000    -7.231000000
H     2.492000000     0.585000000    -7.844000000
H     2.964000000    -0.570000000    -6.986000000
O    -3.323000000     2.562000000    -4.642000000
H    -2.665000000     2.890000000    -4.030000000
H    -2.960000000     1.738000000    -4.966000000
O    -1.865000000    -1.080000000    -7.574000000
H    -1.672000000    -1.974000000    -7.290000000
H    -1.317000000    -0.528000000    -7.016000000
O     4.140000000    -3.302000000    -7.705000000
H     3.527000000    -2.872000000    -7.108000000
H     4.523000000    -4.009000000    -7.186000000
O     2.190000000     1.339000000    -5.000000000
H     2.664000000     1.082000000    -5.791000000
H     1.377000000     0.835000000    -5.033000000
O    -4.455000000    -1.540000000    -9.230000000
H    -3.686000000    -1.303000000    -8.711000000
H    -5.103000000    -1.819000000    -8.583000000
O     1.856000000    -1.924000000    -6.830000000
H     1.347000000    -1.558000000    -7.554000000
H     1.463000000    -1.543000000    -6.045000000
O    -0.291000000     2.215000000    -7.004000000
H     0.470000000     2.624000000    -6.592000000
H    -0.846000000     1.947000000    -6.272000000
O    -6.453000000     1.795000000    -6.196000000
H    -5.706000000     1.206000000    -6.297000000
H    -6.986000000     1.643000000    -6.976000000
O     1.363000000     1.334000000    -9.108000000
H     0.954000000     1.802000000    -9.836000000
H     0.708000000     1.358000000    -8.410000000
O     0.793000000    -4.323000000    -8.465000000
H    -0.076000000    -4.053000000    -8.170000000
H     1.271000000    -3.503000000    -8.586000000
O     1.314000000     4.344000000    -6.201000000
H     0.752000000     4.821000000    -5.590000000
H     2.166000000     4.774000000    -6.127000000
O    -6.295000000    -1.713000000    -7.105000000
H    -5.768000000    -1.262000000    -6.445000000
H    -7.145000000    -1.845000000    -6.684000000
