201
-1239.25067
C     0.045000000    -4.726000000    -2.115000000
H    -0.909000000    -4.585000000    -1.613000000
C     1.241000000    -4.495000000    -1.474000000
C     2.365000000    -4.477000000    -2.288000000
H     3.330000000    -4.104000000    -1.954000000
C     1.318000000    -4.134000000    -0.004000000
O     0.409000000    -4.942000000     0.818000000
H     1.105000000    -3.070000000     0.174000000
O     2.663000000    -4.257000000     0.472000000
C     3.226000000    -3.319000000     1.330000000
C     4.156000000    -2.478000000     0.814000000
H     4.423000000    -2.720000000    -0.211000000
C     4.503000000    -1.336000000     1.436000000
O     5.142000000    -0.300000000     0.702000000
C     4.062000000    -1.143000000     2.769000000
C     4.481000000     0.075000000     3.619000000
H     4.592000000    -0.164000000     4.679000000
C     3.447000000     1.207000000     3.421000000
C     2.367000000     1.291000000     4.240000000
H     2.253000000     0.492000000     4.968000000
H     5.462000000     0.460000000     3.334000000
C     3.239000000    -2.071000000     3.372000000
H     2.859000000    -1.932000000     4.381000000
C     2.738000000    -3.113000000     2.632000000
C     1.780000000    -4.091000000     3.253000000
H     1.922000000    -4.011000000     4.332000000
H     1.918000000    -5.156000000     3.055000000
C     0.299000000    -3.757000000     2.960000000
C    -0.432000000    -3.046000000     3.912000000
H    -0.003000000    -2.801000000     4.880000000
C    -0.319000000    -4.217000000     1.780000000
C    -1.616000000    -3.797000000     1.487000000
H    -2.089000000    -4.182000000     0.588000000
C    -2.308000000    -2.989000000     2.343000000
O    -3.506000000    -2.476000000     1.924000000
C    -3.675000000    -1.118000000     1.539000000
C    -4.548000000    -0.866000000     0.419000000
C    -5.545000000     0.136000000     0.380000000
H    -5.637000000     0.844000000     1.200000000
C    -4.370000000    -1.707000000    -0.685000000
H    -3.643000000    -2.509000000    -0.581000000
O    -4.188000000    -0.505000000     2.729000000
H    -2.643000000    -0.750000000     1.442000000
C    -1.726000000    -2.674000000     3.548000000
C    -2.538000000    -1.876000000     4.590000000
H    -2.153000000    -1.978000000     5.607000000
H    -3.550000000    -2.285000000     4.535000000
C    -2.406000000    -0.372000000     4.331000000
C    -1.304000000     0.279000000     4.852000000
H    -0.680000000    -0.268000000     5.554000000
C    -3.246000000     0.221000000     3.401000000
C    -3.027000000     1.535000000     3.070000000
H    -3.749000000     2.024000000     2.421000000
C    -1.935000000     2.196000000     3.625000000
O    -1.702000000     3.437000000     3.116000000
C    -0.737000000     3.529000000     1.998000000
C    -1.283000000     4.194000000     0.678000000
C    -2.682000000     4.324000000     0.512000000
H    -3.427000000     4.050000000     1.254000000
C    -0.406000000     4.649000000    -0.285000000
H     0.652000000     4.480000000    -0.097000000
O     0.528000000     4.064000000     2.488000000
H    -0.579000000     2.484000000     1.694000000
C    -1.070000000     1.559000000     4.452000000
C     0.129000000     2.331000000     5.055000000
H     0.470000000     1.936000000     6.014000000
H    -0.186000000     3.365000000     5.207000000
C     1.351000000     2.282000000     4.018000000
C     1.465000000     3.181000000     2.939000000
C     2.584000000     3.062000000     2.101000000
H     2.643000000     3.673000000     1.205000000
C     3.557000000     2.051000000     2.322000000
O     4.554000000     1.919000000     1.348000000
C     4.320000000     0.874000000     0.403000000
H     3.227000000     0.761000000     0.458000000
C     4.588000000     1.328000000    -1.046000000
C     4.715000000     0.435000000    -2.118000000
H     4.671000000    -0.631000000    -1.913000000
C     4.486000000     2.738000000    -1.384000000
H     4.244000000     3.405000000    -0.561000000
C     4.597000000     3.098000000    -2.724000000
O     4.525000000     4.477000000    -3.025000000
C     4.737000000     2.155000000    -3.762000000
H     4.733000000     2.475000000    -4.801000000
C     4.776000000     0.843000000    -3.433000000
O     4.498000000    -0.083000000    -4.477000000
C     4.914000000    -1.393000000    -4.523000000
C     3.942000000    -2.425000000    -4.477000000
H     2.878000000    -2.201000000    -4.500000000
C     6.273000000    -1.697000000    -4.596000000
H     7.064000000    -0.952000000    -4.625000000
C     6.675000000    -2.997000000    -4.599000000
H     7.733000000    -3.232000000    -4.677000000
C     5.718000000    -4.034000000    -4.476000000
H     6.076000000    -5.057000000    -4.549000000
C     4.374000000    -3.754000000    -4.488000000
O     3.493000000    -4.806000000    -4.413000000
C     2.352000000    -4.850000000    -3.632000000
C     1.113000000    -5.171000000    -4.285000000
H     1.167000000    -5.249000000    -5.368000000
C    -0.003000000    -5.057000000    -3.512000000
O    -1.227000000    -5.199000000    -4.280000000
C    -2.453000000    -4.958000000    -3.681000000
C    -3.152000000    -3.697000000    -3.721000000
H    -2.700000000    -2.813000000    -4.164000000
C    -3.036000000    -6.038000000    -2.991000000
H    -2.541000000    -7.005000000    -2.950000000
C    -4.225000000    -5.851000000    -2.317000000
H    -4.596000000    -6.668000000    -1.704000000
C    -4.936000000    -4.621000000    -2.402000000
H    -5.850000000    -4.442000000    -1.841000000
C    -4.345000000    -3.522000000    -3.067000000
O    -5.010000000    -2.326000000    -3.033000000
C    -5.220000000    -1.594000000    -1.852000000
C    -6.184000000    -0.593000000    -1.864000000
H    -6.851000000    -0.465000000    -2.712000000
C    -6.352000000     0.229000000    -0.748000000
O    -7.256000000     1.223000000    -0.819000000
C    -7.041000000     2.496000000    -0.477000000
C    -5.868000000     3.165000000    -0.832000000
H    -5.120000000     2.653000000    -1.430000000
C    -7.919000000     3.159000000     0.380000000
H    -8.782000000     2.626000000     0.771000000
C    -7.568000000     4.385000000     0.894000000
H    -8.245000000     4.972000000     1.511000000
C    -6.393000000     5.071000000     0.560000000
H    -6.060000000     6.039000000     0.927000000
C    -5.559000000     4.431000000    -0.360000000
O    -4.510000000     5.061000000    -0.935000000
C    -3.140000000     5.019000000    -0.631000000
C    -2.269000000     5.411000000    -1.609000000
H    -2.650000000     5.819000000    -2.541000000
C    -0.873000000     5.287000000    -1.433000000
O     0.043000000     5.648000000    -2.428000000
C     1.300000000     5.932000000    -2.141000000
C     1.626000000     6.855000000    -1.141000000
H     0.923000000     7.491000000    -0.609000000
C     2.906000000     6.842000000    -0.661000000
H     3.145000000     7.409000000     0.235000000
C     3.928000000     6.204000000    -1.414000000
H     4.979000000     6.265000000    -1.143000000
C     3.586000000     5.251000000    -2.370000000
C     2.252000000     5.095000000    -2.644000000
H     1.916000000     4.218000000    -3.191000000
O    -4.674000000     0.311000000    -8.668000000
H    -4.679000000    -0.217000000    -7.870000000
H    -4.769000000     1.212000000    -8.360000000
O    -1.626000000    -3.716000000    -9.201000000
H    -1.447000000    -3.435000000    -8.304000000
H    -2.233000000    -3.058000000    -9.541000000
O    -4.210000000     0.197000000    -5.394000000
H    -3.400000000     0.494000000    -4.980000000
H    -4.894000000     0.732000000    -4.992000000
O    -2.209000000     2.357000000    -4.681000000
H    -1.916000000     1.457000000    -4.819000000
H    -1.411000000     2.837000000    -4.456000000
O     0.839000000     4.964000000    -5.987000000
H     1.081000000     5.795000000    -5.578000000
H     1.048000000     4.303000000    -5.327000000
O    -4.271000000     4.138000000    -4.503000000
H    -3.533000000     3.587000000    -4.765000000
H    -4.934000000     3.519000000    -4.195000000
O     0.287000000    -2.793000000    -6.697000000
H    -0.567000000    -2.924000000    -6.287000000
H     0.656000000    -2.034000000    -6.245000000
O     3.115000000    -0.554000000    -9.206000000
H     2.671000000    -1.373000000    -8.986000000
H     3.099000000    -0.048000000    -8.394000000
O     1.050000000     2.470000000    -4.994000000
H     1.018000000     1.905000000    -4.222000000
H     1.136000000     1.866000000    -5.731000000
O    -2.928000000    -2.257000000    -6.578000000
H    -3.820000000    -2.479000000    -6.313000000
H    -2.760000000    -1.410000000    -6.165000000
O     2.479000000     0.279000000    -6.579000000
H     3.084000000    -0.410000000    -6.304000000
H     1.651000000     0.053000000    -6.155000000
O    -0.223000000    -0.144000000    -8.660000000
H    -0.271000000    -0.405000000    -7.741000000
H    -0.686000000    -0.838000000    -9.130000000
O     4.632000000     2.262000000    -7.280000000
H     5.369000000     1.806000000    -6.875000000
H     3.869000000     1.728000000    -7.060000000
O    -4.952000000     3.429000000    -7.872000000
H    -4.029000000     3.431000000    -7.617000000
H    -4.978000000     3.935000000    -8.684000000
O     1.556000000    -2.897000000    -9.228000000
H     0.833000000    -3.004000000    -8.610000000
H     2.328000000    -3.196000000    -8.748000000
O    -3.037000000    -1.369000000   -10.301000000
H    -3.517000000    -1.098000000    -9.518000000
H    -3.607000000    -1.119000000   -11.029000000
O    -5.868000000    -1.708000000    -6.161000000
H    -6.462000000    -1.192000000    -6.706000000
H    -5.268000000    -1.063000000    -5.786000000
O    -0.899000000     2.325000000    -9.436000000
H    -0.768000000     1.479000000    -9.009000000
H    -1.464000000     2.131000000   -10.184000000
O    -1.876000000     4.131000000    -7.527000000
H    -1.570000000     3.481000000    -8.159000000
H    -1.106000000     4.324000000    -6.991000000
