201
-1226.48353
C    -0.780000000    -4.115000000    -1.409000000
H    -1.468000000    -3.688000000    -0.683000000
C     0.485000000    -4.330000000    -0.959000000
C     1.416000000    -4.719000000    -1.896000000
H     2.399000000    -5.051000000    -1.573000000
C     0.955000000    -4.104000000     0.492000000
O     0.082000000    -4.671000000     1.429000000
H     0.828000000    -3.018000000     0.621000000
O     2.344000000    -4.490000000     0.717000000
C     3.060000000    -3.565000000     1.349000000
C     3.889000000    -2.770000000     0.517000000
H     4.007000000    -2.953000000    -0.548000000
C     4.474000000    -1.618000000     1.062000000
O     5.101000000    -0.746000000     0.249000000
C     4.331000000    -1.246000000     2.349000000
C     4.848000000     0.108000000     2.822000000
H     5.216000000     0.080000000     3.849000000
C     3.822000000     1.232000000     2.609000000
C     2.930000000     1.589000000     3.676000000
H     2.783000000     0.891000000     4.497000000
H     5.793000000     0.417000000     2.371000000
C     3.447000000    -1.976000000     3.076000000
H     3.349000000    -1.682000000     4.117000000
C     2.864000000    -3.199000000     2.649000000
C     1.854000000    -3.875000000     3.528000000
H     2.022000000    -3.780000000     4.603000000
H     1.967000000    -4.938000000     3.308000000
C     0.388000000    -3.336000000     3.366000000
C    -0.149000000    -2.532000000     4.364000000
H     0.482000000    -2.125000000     5.149000000
C    -0.439000000    -3.789000000     2.370000000
C    -1.674000000    -3.226000000     2.159000000
H    -2.241000000    -3.519000000     1.279000000
C    -2.136000000    -2.297000000     3.105000000
O    -3.419000000    -1.831000000     2.900000000
C    -3.678000000    -0.492000000     2.397000000
C    -4.910000000    -0.492000000     1.525000000
C    -5.640000000     0.671000000     1.430000000
H    -5.301000000     1.533000000     1.998000000
C    -5.329000000    -1.642000000     0.827000000
H    -4.728000000    -2.547000000     0.776000000
O    -3.866000000     0.406000000     3.545000000
H    -2.752000000    -0.154000000     1.910000000
C    -1.410000000    -2.035000000     4.294000000
C    -1.898000000    -0.960000000     5.249000000
H    -1.364000000    -1.024000000     6.199000000
H    -2.955000000    -1.158000000     5.442000000
C    -1.741000000     0.496000000     4.765000000
C    -0.528000000     1.156000000     4.924000000
H     0.234000000     0.799000000     5.613000000
C    -2.731000000     1.143000000     3.983000000
C    -2.498000000     2.351000000     3.335000000
H    -3.294000000     2.755000000     2.715000000
C    -1.251000000     2.945000000     3.434000000
O    -0.947000000     4.153000000     2.761000000
C    -0.032000000     3.964000000     1.606000000
C    -0.613000000     4.581000000     0.310000000
C    -1.923000000     4.171000000    -0.052000000
H    -2.494000000     3.602000000     0.677000000
C     0.145000000     5.265000000    -0.626000000
H     1.178000000     5.528000000    -0.412000000
O     1.343000000     4.412000000     1.889000000
H     0.063000000     2.882000000     1.433000000
C    -0.236000000     2.361000000     4.246000000
C     1.067000000     3.085000000     4.459000000
H     1.469000000     2.775000000     5.426000000
H     0.970000000     4.169000000     4.550000000
C     2.149000000     2.736000000     3.452000000
C     2.203000000     3.423000000     2.244000000
C     3.145000000     3.088000000     1.253000000
H     3.244000000     3.660000000     0.334000000
C     3.873000000     1.919000000     1.374000000
O     4.635000000     1.448000000     0.330000000
C     4.300000000     0.271000000    -0.337000000
H     3.256000000     0.066000000    -0.055000000
C     4.338000000     0.385000000    -1.835000000
C     4.699000000    -0.720000000    -2.690000000
H     4.969000000    -1.681000000    -2.259000000
C     3.849000000     1.641000000    -2.388000000
H     3.443000000     2.436000000    -1.768000000
C     3.858000000     1.748000000    -3.763000000
O     3.310000000     2.850000000    -4.361000000
C     4.267000000     0.684000000    -4.523000000
H     4.422000000     0.833000000    -5.589000000
C     4.726000000    -0.543000000    -4.053000000
O     5.018000000    -1.539000000    -4.882000000
C     4.862000000    -2.913000000    -4.692000000
C     3.578000000    -3.464000000    -4.440000000
H     2.725000000    -2.794000000    -4.508000000
C     5.940000000    -3.814000000    -4.527000000
H     6.949000000    -3.414000000    -4.582000000
C     5.770000000    -5.177000000    -4.355000000
H     6.576000000    -5.903000000    -4.433000000
C     4.494000000    -5.693000000    -4.197000000
H     4.422000000    -6.777000000    -4.170000000
C     3.439000000    -4.854000000    -4.175000000
O     2.098000000    -5.335000000    -4.062000000
C     1.104000000    -4.857000000    -3.228000000
C    -0.158000000    -4.590000000    -3.709000000
H    -0.466000000    -4.604000000    -4.751000000
C    -1.133000000    -4.233000000    -2.781000000
O    -2.434000000    -3.947000000    -3.166000000
C    -3.500000000    -4.178000000    -2.321000000
C    -4.463000000    -3.205000000    -2.069000000
H    -4.294000000    -2.200000000    -2.448000000
C    -3.607000000    -5.452000000    -1.756000000
H    -2.790000000    -6.162000000    -1.851000000
C    -4.810000000    -5.801000000    -1.078000000
H    -4.983000000    -6.808000000    -0.706000000
C    -5.745000000    -4.795000000    -0.847000000
H    -6.660000000    -5.149000000    -0.378000000
C    -5.607000000    -3.554000000    -1.402000000
O    -6.590000000    -2.616000000    -0.993000000
C    -6.415000000    -1.528000000    -0.056000000
C    -7.119000000    -0.351000000    -0.152000000
H    -7.839000000    -0.290000000    -0.964000000
C    -6.777000000     0.746000000     0.580000000
O    -7.375000000     1.969000000     0.411000000
C    -6.670000000     3.119000000     0.258000000
C    -5.526000000     3.129000000    -0.609000000
H    -5.261000000     2.207000000    -1.119000000
C    -6.947000000     4.211000000     1.088000000
H    -7.725000000     4.198000000     1.847000000
C    -6.293000000     5.403000000     0.897000000
H    -6.625000000     6.313000000     1.390000000
C    -5.300000000     5.461000000    -0.097000000
H    -4.998000000     6.441000000    -0.456000000
C    -4.860000000     4.329000000    -0.795000000
O    -3.842000000     4.288000000    -1.685000000
C    -2.529000000     4.541000000    -1.265000000
C    -1.716000000     5.175000000    -2.227000000
H    -2.194000000     5.427000000    -3.170000000
C    -0.398000000     5.562000000    -1.883000000
O     0.315000000     6.369000000    -2.773000000
C     1.606000000     5.926000000    -3.122000000
C     2.583000000     6.885000000    -3.315000000
H     2.327000000     7.935000000    -3.194000000
C     3.879000000     6.503000000    -3.689000000
H     4.607000000     7.278000000    -3.917000000
C     4.155000000     5.160000000    -3.975000000
H     5.152000000     4.870000000    -4.296000000
C     3.159000000     4.154000000    -3.925000000
C     1.864000000     4.575000000    -3.503000000
H     1.212000000     3.722000000    -3.339000000
O     1.716000000     5.048000000    -7.121000000
H     0.990000000     5.524000000    -6.718000000
H     1.683000000     4.179000000    -6.722000000
O    -0.988000000    -0.346000000    -8.286000000
H    -0.804000000    -1.267000000    -8.098000000
H    -0.878000000     0.096000000    -7.444000000
O    -5.323000000    -2.238000000    -6.291000000
H    -5.820000000    -1.445000000    -6.086000000
H    -4.423000000    -2.026000000    -6.045000000
O    -5.544000000     3.216000000    -3.752000000
H    -5.576000000     3.736000000    -2.949000000
H    -6.354000000     3.437000000    -4.212000000
O    -2.744000000    -1.501000000    -5.857000000
H    -2.288000000    -0.699000000    -5.601000000
H    -2.387000000    -2.174000000    -5.277000000
O    -7.122000000    -0.650000000    -4.497000000
H    -6.295000000    -0.760000000    -4.028000000
H    -7.501000000     0.149000000    -4.132000000
O    -4.589000000     0.544000000    -3.853000000
H    -4.807000000     1.474000000    -3.789000000
H    -3.637000000     0.528000000    -3.952000000
O    -5.660000000     0.907000000    -8.707000000
H    -6.386000000     0.746000000    -8.104000000
H    -5.002000000     1.353000000    -8.174000000
O     1.341000000    -1.943000000    -6.369000000
H     0.881000000    -2.187000000    -7.172000000
H     0.813000000    -1.237000000    -5.995000000
O     1.328000000     2.393000000    -6.348000000
H     2.008000000     2.444000000    -5.676000000
H     0.794000000     1.641000000    -6.091000000
O    -2.476000000    -4.797000000    -6.884000000
H    -3.295000000    -4.501000000    -6.486000000
H    -2.652000000    -4.795000000    -7.825000000
O    -5.963000000     4.380000000    -7.009000000
H    -5.795000000     4.530000000    -7.939000000
H    -5.367000000     3.670000000    -6.769000000
O    -2.221000000     3.758000000    -5.320000000
H    -2.922000000     4.197000000    -4.839000000
H    -2.193000000     2.875000000    -4.951000000
O     1.430000000     2.063000000    -9.171000000
H     1.335000000     1.998000000    -8.221000000
H     1.990000000     1.324000000    -9.408000000
O    -3.749000000     1.693000000    -6.993000000
H    -3.322000000     2.271000000    -7.626000000
H    -3.046000000     1.427000000    -6.401000000
O    -1.409000000     2.152000000    -9.281000000
H    -1.637000000     1.294000000    -8.922000000
H    -0.452000000     2.173000000    -9.259000000
O    -4.953000000    -4.888000000    -5.480000000
H    -4.822000000    -3.953000000    -5.638000000
H    -5.862000000    -4.956000000    -5.188000000
O    -2.708000000     4.366000000    -7.847000000
H    -2.291000000     3.644000000    -8.317000000
H    -2.589000000     4.151000000    -6.922000000
O    -0.523000000     6.213000000    -5.588000000
H    -0.091000000     6.246000000    -4.735000000
H    -0.912000000     5.339000000    -5.625000000
