201
-1238.27647
C     0.678000000    -4.428000000    -1.280000000
H    -0.244000000    -4.420000000    -0.704000000
C     1.952000000    -4.147000000    -0.757000000
C     3.148000000    -4.251000000    -1.573000000
H     4.122000000    -4.023000000    -1.146000000
C     1.975000000    -3.726000000     0.672000000
O     1.246000000    -4.570000000     1.633000000
H     1.487000000    -2.742000000     0.610000000
O     3.271000000    -3.607000000     1.235000000
C     3.641000000    -2.471000000     1.821000000
C     4.186000000    -1.521000000     1.006000000
H     4.529000000    -1.813000000     0.017000000
C     4.315000000    -0.179000000     1.538000000
O     4.926000000     0.742000000     0.701000000
C     3.956000000     0.139000000     2.845000000
C     4.097000000     1.545000000     3.417000000
H     4.313000000     1.510000000     4.487000000
C     2.940000000     2.410000000     3.021000000
C     1.870000000     2.538000000     3.860000000
H     1.798000000     2.093000000     4.849000000
H     5.020000000     1.983000000     3.032000000
C     3.547000000    -0.963000000     3.666000000
H     3.320000000    -0.721000000     4.701000000
C     3.269000000    -2.209000000     3.155000000
C     2.462000000    -3.248000000     3.948000000
H     2.647000000    -3.068000000     5.010000000
H     2.879000000    -4.185000000     3.573000000
C     0.944000000    -3.254000000     3.695000000
C     0.090000000    -2.449000000     4.549000000
H     0.599000000    -1.999000000     5.398000000
C     0.420000000    -3.896000000     2.550000000
C    -0.938000000    -3.810000000     2.288000000
H    -1.342000000    -4.445000000     1.504000000
C    -1.743000000    -2.943000000     3.011000000
O    -3.000000000    -2.742000000     2.516000000
C    -3.380000000    -1.523000000     1.903000000
C    -4.293000000    -1.805000000     0.663000000
C    -5.267000000    -0.853000000     0.295000000
H    -5.462000000    -0.073000000     1.027000000
C    -4.261000000    -3.037000000    -0.052000000
H    -3.490000000    -3.760000000     0.199000000
O    -4.033000000    -0.697000000     2.865000000
H    -2.441000000    -1.103000000     1.514000000
C    -1.232000000    -2.266000000     4.152000000
C    -2.140000000    -1.351000000     4.990000000
H    -1.697000000    -1.246000000     5.983000000
H    -3.144000000    -1.776000000     5.041000000
C    -2.329000000     0.016000000     4.361000000
C    -1.453000000     1.038000000     4.655000000
H    -0.684000000     0.742000000     5.365000000
C    -3.240000000     0.290000000     3.368000000
C    -3.406000000     1.517000000     2.745000000
H    -4.137000000     1.760000000     1.978000000
C    -2.527000000     2.548000000     3.096000000
O    -2.507000000     3.733000000     2.340000000
C    -1.571000000     3.852000000     1.336000000
C    -2.131000000     4.383000000     0.058000000
C    -3.445000000     4.096000000    -0.303000000
H    -3.992000000     3.373000000     0.298000000
C    -1.361000000     5.148000000    -0.858000000
H    -0.339000000     5.441000000    -0.634000000
O    -0.432000000     4.651000000     1.858000000
H    -1.210000000     2.826000000     1.171000000
C    -1.518000000     2.261000000     4.032000000
C    -0.471000000     3.307000000     4.448000000
H    -0.239000000     3.319000000     5.515000000
H    -0.869000000     4.321000000     4.373000000
C     0.751000000     3.304000000     3.488000000
C     0.688000000     4.017000000     2.281000000
C     1.845000000     3.888000000     1.479000000
H     1.797000000     4.450000000     0.550000000
C     2.976000000     3.098000000     1.773000000
O     3.955000000     2.911000000     0.819000000
C     4.011000000     1.661000000     0.086000000
H     2.996000000     1.239000000     0.116000000
C     4.331000000     1.850000000    -1.428000000
C     5.109000000     0.959000000    -2.204000000
H     5.541000000     0.122000000    -1.660000000
C     3.556000000     2.808000000    -2.102000000
H     2.893000000     3.448000000    -1.526000000
C     3.367000000     2.735000000    -3.513000000
O     2.413000000     3.473000000    -4.179000000
C     4.115000000     1.794000000    -4.213000000
H     3.842000000     1.713000000    -5.262000000
C     4.967000000     0.882000000    -3.584000000
O     5.596000000    -0.094000000    -4.342000000
C     5.813000000    -1.340000000    -3.918000000
C     4.764000000    -2.298000000    -3.972000000
H     3.745000000    -2.081000000    -4.284000000
C     7.058000000    -1.773000000    -3.532000000
H     7.840000000    -1.033000000    -3.679000000
C     7.235000000    -3.073000000    -3.096000000
H     8.214000000    -3.488000000    -2.868000000
C     6.226000000    -4.012000000    -3.090000000
H     6.320000000    -5.037000000    -2.740000000
C     5.057000000    -3.604000000    -3.686000000
O     4.066000000    -4.526000000    -3.735000000
C     2.948000000    -4.631000000    -2.893000000
C     1.679000000    -4.809000000    -3.442000000
H     1.525000000    -4.990000000    -4.503000000
C     0.574000000    -4.815000000    -2.608000000
O    -0.595000000    -4.887000000    -3.236000000
C    -1.690000000    -5.582000000    -2.670000000
C    -2.830000000    -4.821000000    -2.435000000
H    -2.799000000    -3.789000000    -2.775000000
C    -1.589000000    -6.892000000    -2.191000000
H    -0.662000000    -7.352000000    -2.523000000
C    -2.675000000    -7.372000000    -1.477000000
H    -2.592000000    -8.292000000    -0.904000000
C    -3.836000000    -6.605000000    -1.329000000
H    -4.752000000    -6.914000000    -0.832000000
C    -3.951000000    -5.331000000    -1.848000000
O    -5.083000000    -4.587000000    -1.703000000
C    -5.117000000    -3.331000000    -1.108000000
C    -6.048000000    -2.320000000    -1.507000000
H    -6.709000000    -2.449000000    -2.361000000
C    -6.060000000    -1.094000000    -0.837000000
O    -7.005000000    -0.188000000    -1.193000000
C    -6.917000000     1.095000000    -0.745000000
C    -6.066000000     1.995000000    -1.382000000
H    -5.539000000     1.651000000    -2.269000000
C    -7.716000000     1.577000000     0.246000000
H    -8.322000000     0.929000000     0.875000000
C    -7.764000000     2.916000000     0.567000000
H    -8.366000000     3.250000000     1.408000000
C    -6.937000000     3.829000000    -0.121000000
H    -6.903000000     4.848000000     0.254000000
C    -6.051000000     3.337000000    -1.070000000
O    -5.290000000     4.254000000    -1.801000000
C    -3.991000000     4.576000000    -1.495000000
C    -3.179000000     5.294000000    -2.345000000
H    -3.589000000     5.532000000    -3.324000000
C    -1.861000000     5.616000000    -2.088000000
O    -1.108000000     6.504000000    -2.842000000
C     0.276000000     6.239000000    -3.148000000
C     1.205000000     7.276000000    -3.088000000
H     0.823000000     8.272000000    -2.881000000
C     2.551000000     7.055000000    -3.315000000
H     3.294000000     7.847000000    -3.373000000
C     3.019000000     5.729000000    -3.689000000
H     4.071000000     5.456000000    -3.737000000
C     2.055000000     4.709000000    -3.858000000
C     0.707000000     4.938000000    -3.480000000
H     0.031000000     4.093000000    -3.582000000
O     3.757000000     2.097000000    -8.932000000
H     3.557000000     2.247000000    -8.008000000
H     3.827000000     2.974000000    -9.308000000
O     0.660000000     4.019000000   -10.263000000
H     1.398000000     4.168000000    -9.672000000
H    -0.115000000     4.147000000    -9.716000000
O    -2.599000000    -0.555000000    -8.355000000
H    -1.741000000    -0.777000000    -8.716000000
H    -3.219000000    -1.058000000    -8.884000000
O    -0.350000000     1.384000000   -11.302000000
H     0.035000000     1.120000000   -10.466000000
H    -0.300000000     2.339000000   -11.297000000
O    -0.773000000    -4.863000000    -6.581000000
H    -0.513000000    -4.209000000    -5.933000000
H    -1.459000000    -4.434000000    -7.093000000
O    -5.466000000    -1.762000000    -5.372000000
H    -4.819000000    -1.111000000    -5.644000000
H    -6.304000000    -1.302000000    -5.422000000
O    -3.236000000     0.220000000    -5.714000000
H    -2.450000000     0.575000000    -5.299000000
H    -2.947000000    -0.044000000    -6.588000000
O     0.929000000     0.986000000    -8.924000000
H     0.790000000     0.282000000    -8.291000000
H     1.854000000     1.213000000    -8.829000000
O    -5.244000000     2.265000000    -5.388000000
H    -4.821000000     3.124000000    -5.397000000
H    -4.526000000     1.643000000    -5.506000000
O     2.358000000    -0.852000000    -6.933000000
H     3.281000000    -0.603000000    -6.970000000
H     1.931000000    -0.123000000    -6.483000000
O     2.198000000     2.781000000    -6.820000000
H     1.655000000     2.037000000    -6.559000000
H     2.141000000     3.389000000    -6.083000000
O     0.669000000    -2.799000000    -5.434000000
H     0.845000000    -2.687000000    -4.500000000
H     1.048000000    -2.021000000    -5.844000000
O     2.647000000    -2.937000000    -8.793000000
H     2.373000000    -2.192000000    -8.258000000
H     1.897000000    -3.531000000    -8.777000000
O    -2.886000000     3.820000000    -5.310000000
H    -2.467000000     4.677000000    -5.390000000
H    -2.158000000     3.201000000    -5.259000000
O    -5.444000000     2.197000000    -8.087000000
H    -4.534000000     2.285000000    -8.371000000
H    -5.437000000     2.472000000    -7.171000000
O    -3.091000000     2.069000000    -9.108000000
H    -2.834000000     1.188000000    -8.835000000
H    -2.497000000     2.649000000    -8.632000000
O    -3.346000000     5.115000000    -8.313000000
H    -2.746000000     5.571000000    -8.904000000
H    -2.791000000     4.812000000    -7.595000000
O    -0.573000000     2.868000000    -7.692000000
H     0.015000000     2.349000000    -8.239000000
H    -0.567000000     2.424000000    -6.844000000
O    -0.776000000     5.483000000    -6.884000000
H    -0.728000000     4.543000000    -7.062000000
H    -0.182000000     5.877000000    -7.523000000
