201
-1221.46338
C    -1.301000000    -5.393000000    -0.466000000
H    -1.999000000    -5.326000000     0.365000000
C     0.010000000    -4.887000000    -0.387000000
C     0.801000000    -4.849000000    -1.536000000
H     1.727000000    -4.280000000    -1.553000000
C     0.490000000    -4.151000000     0.862000000
O    -0.347000000    -4.645000000     1.946000000
H     0.307000000    -3.080000000     0.690000000
O     1.869000000    -4.394000000     1.203000000
C     2.673000000    -3.399000000     1.741000000
C     3.535000000    -2.771000000     0.833000000
H     3.653000000    -3.157000000    -0.176000000
C     4.098000000    -1.579000000     1.190000000
O     4.667000000    -0.879000000     0.210000000
C     3.917000000    -0.993000000     2.454000000
C     4.639000000     0.203000000     3.014000000
H     4.604000000     0.139000000     4.103000000
C     3.929000000     1.479000000     2.591000000
C     2.994000000     2.019000000     3.492000000
H     2.895000000     1.701000000     4.526000000
H     5.680000000     0.104000000     2.698000000
C     3.209000000    -1.786000000     3.366000000
H     2.915000000    -1.294000000     4.289000000
C     2.541000000    -2.966000000     3.029000000
C     1.592000000    -3.628000000     3.930000000
H     1.955000000    -3.560000000     4.958000000
H     1.603000000    -4.697000000     3.708000000
C     0.174000000    -3.082000000     3.791000000
C    -0.240000000    -2.030000000     4.638000000
H     0.412000000    -1.575000000     5.380000000
C    -0.667000000    -3.676000000     2.897000000
C    -1.972000000    -3.159000000     2.681000000
H    -2.620000000    -3.606000000     1.931000000
C    -2.370000000    -2.025000000     3.470000000
O    -3.552000000    -1.411000000     3.139000000
C    -3.528000000    -0.218000000     2.316000000
C    -4.749000000    -0.323000000     1.304000000
C    -5.302000000     0.849000000     0.702000000
H    -5.122000000     1.830000000     1.134000000
C    -4.977000000    -1.551000000     0.722000000
H    -4.427000000    -2.436000000     1.031000000
O    -3.673000000     0.888000000     3.167000000
H    -2.574000000    -0.180000000     1.769000000
C    -1.509000000    -1.484000000     4.412000000
C    -1.834000000    -0.205000000     5.241000000
H    -1.336000000    -0.140000000     6.210000000
H    -2.904000000    -0.114000000     5.442000000
C    -1.602000000     1.086000000     4.465000000
C    -0.420000000     1.802000000     4.684000000
H     0.352000000     1.536000000     5.402000000
C    -2.493000000     1.544000000     3.460000000
C    -2.213000000     2.626000000     2.638000000
H    -3.000000000     3.030000000     2.005000000
C    -0.975000000     3.282000000     2.776000000
O    -0.772000000     4.234000000     1.859000000
C     0.319000000     4.098000000     0.931000000
C    -0.003000000     4.565000000    -0.494000000
C    -1.356000000     4.378000000    -0.860000000
H    -1.999000000     3.859000000    -0.153000000
C     0.903000000     4.997000000    -1.502000000
H     1.981000000     5.099000000    -1.406000000
O     1.568000000     4.670000000     1.399000000
H     0.367000000     2.999000000     0.891000000
C    -0.137000000     2.903000000     3.856000000
C     1.143000000     3.656000000     4.089000000
H     1.412000000     3.640000000     5.148000000
H     0.927000000     4.691000000     3.816000000
C     2.232000000     3.123000000     3.180000000
C     2.500000000     3.792000000     1.924000000
C     3.306000000     3.178000000     1.009000000
H     3.434000000     3.620000000     0.024000000
C     3.983000000     2.000000000     1.356000000
O     4.698000000     1.421000000     0.311000000
C     3.995000000     0.282000000    -0.273000000
H     2.975000000     0.372000000     0.127000000
C     4.101000000     0.352000000    -1.807000000
C     3.800000000    -0.732000000    -2.583000000
H     3.437000000    -1.662000000    -2.151000000
C     4.409000000     1.588000000    -2.417000000
H     4.772000000     2.416000000    -1.814000000
C     4.444000000     1.700000000    -3.834000000
O     4.912000000     2.946000000    -4.350000000
C     4.365000000     0.535000000    -4.538000000
H     4.473000000     0.489000000    -5.619000000
C     4.063000000    -0.710000000    -3.945000000
O     4.043000000    -1.797000000    -4.719000000
C     3.828000000    -3.057000000    -4.265000000
C     2.590000000    -3.657000000    -4.539000000
H     1.775000000    -3.192000000    -5.089000000
C     4.829000000    -3.719000000    -3.574000000
H     5.735000000    -3.207000000    -3.262000000
C     4.555000000    -4.905000000    -2.958000000
H     5.303000000    -5.440000000    -2.378000000
C     3.303000000    -5.553000000    -3.146000000
H     2.995000000    -6.509000000    -2.728000000
C     2.355000000    -4.895000000    -3.975000000
O     1.170000000    -5.451000000    -3.930000000
C     0.338000000    -5.363000000    -2.779000000
C    -0.937000000    -5.890000000    -2.848000000
H    -1.392000000    -6.183000000    -3.791000000
C    -1.752000000    -5.917000000    -1.693000000
O    -2.990000000    -6.514000000    -1.749000000
C    -4.119000000    -5.942000000    -1.168000000
C    -4.451000000    -4.651000000    -1.540000000
H    -3.833000000    -4.299000000    -2.362000000
C    -4.972000000    -6.653000000    -0.374000000
H    -4.830000000    -7.703000000    -0.128000000
C    -6.131000000    -6.057000000     0.139000000
H    -6.770000000    -6.613000000     0.821000000
C    -6.344000000    -4.679000000    -0.126000000
H    -7.263000000    -4.266000000     0.282000000
C    -5.485000000    -3.991000000    -0.968000000
O    -5.730000000    -2.736000000    -1.296000000
C    -5.648000000    -1.571000000    -0.507000000
C    -6.182000000    -0.358000000    -1.029000000
H    -6.710000000    -0.435000000    -1.977000000
C    -6.092000000     0.870000000    -0.422000000
O    -6.658000000     2.074000000    -0.994000000
C    -6.114000000     3.297000000    -0.968000000
C    -5.001000000     3.418000000    -1.834000000
H    -4.755000000     2.617000000    -2.527000000
C    -6.477000000     4.218000000    -0.026000000
H    -7.426000000     4.080000000     0.487000000
C    -5.740000000     5.383000000     0.090000000
H    -6.128000000     6.213000000     0.676000000
C    -4.586000000     5.547000000    -0.675000000
H    -3.962000000     6.409000000    -0.450000000
C    -4.170000000     4.508000000    -1.553000000
O    -3.117000000     4.642000000    -2.403000000
C    -1.821000000     4.824000000    -2.075000000
C    -0.889000000     5.343000000    -3.043000000
H    -1.236000000     5.936000000    -3.884000000
C     0.468000000     5.382000000    -2.763000000
O     1.286000000     6.009000000    -3.638000000
C     2.601000000     5.791000000    -3.678000000
C     3.527000000     6.819000000    -3.421000000
H     3.142000000     7.746000000    -3.003000000
C     4.912000000     6.501000000    -3.394000000
H     5.585000000     7.335000000    -3.209000000
C     5.326000000     5.191000000    -3.753000000
H     6.405000000     5.073000000    -3.808000000
C     4.406000000     4.178000000    -3.926000000
C     3.059000000     4.487000000    -3.981000000
H     2.396000000     3.680000000    -4.281000000
O    -4.843000000    -3.795000000    -5.128000000
H    -4.354000000    -3.824000000    -5.951000000
H    -4.382000000    -3.144000000    -4.598000000
O    -4.902000000    -2.563000000    -8.574000000
H    -4.224000000    -2.479000000    -7.904000000
H    -4.443000000    -2.407000000    -9.400000000
O    -4.573000000    -7.982000000    -4.186000000
H    -4.966000000    -8.344000000    -4.981000000
H    -5.008000000    -7.138000000    -4.066000000
O    -4.874000000    -0.263000000    -4.364000000
H    -5.647000000    -0.817000000    -4.476000000
H    -4.198000000    -0.856000000    -4.037000000
O    -9.010000000    -3.619000000    -2.879000000
H    -8.135000000    -3.519000000    -3.253000000
H    -9.580000000    -3.750000000    -3.636000000
O    -7.282000000    -2.566000000    -4.853000000
H    -6.394000000    -2.876000000    -4.676000000
H    -7.477000000    -2.890000000    -5.733000000
O    -6.852000000    -5.592000000    -4.247000000
H    -6.212000000    -4.885000000    -4.335000000
H    -7.039000000    -5.860000000    -5.147000000
O     0.261000000     2.101000000    -6.449000000
H     0.132000000     2.235000000    -5.510000000
H     0.245000000     1.150000000    -6.560000000
O    -0.114000000    -4.194000000    -6.306000000
H     0.378000000    -4.803000000    -5.755000000
H    -0.515000000    -3.583000000    -5.688000000
O    -0.178000000    -0.693000000    -6.168000000
H     0.316000000    -1.437000000    -6.513000000
H    -0.467000000    -0.979000000    -5.301000000
O    -2.722000000    -6.724000000    -6.410000000
H    -2.068000000    -6.626000000    -7.103000000
H    -2.267000000    -7.207000000    -5.719000000
O    -1.726000000     1.434000000    -8.695000000
H    -2.661000000     1.625000000    -8.768000000
H    -1.454000000     1.877000000    -7.891000000
O    -0.220000000     2.430000000    -3.725000000
H    -0.158000000     1.704000000    -3.103000000
H    -0.927000000     2.977000000    -3.385000000
O    -3.603000000     2.897000000    -6.132000000
H    -4.225000000     2.968000000    -6.856000000
H    -3.778000000     2.037000000    -5.749000000
O    -3.326000000     0.086000000    -6.393000000
H    -2.777000000    -0.692000000    -6.487000000
H    -3.883000000    -0.103000000    -5.638000000
O    -2.634000000    -3.162000000    -6.964000000
H    -2.308000000    -3.036000000    -6.073000000
H    -1.935000000    -3.641000000    -7.409000000
O    -6.425000000    -0.121000000    -7.662000000
H    -5.610000000     0.240000000    -7.313000000
H    -6.173000000    -0.967000000    -8.033000000
O    -4.753000000    -6.105000000    -7.955000000
H    -4.245000000    -5.361000000    -8.276000000
H    -4.140000000    -6.595000000    -7.406000000
O     1.894000000    -3.505000000    -7.876000000
H     1.128000000    -3.697000000    -7.335000000
H     1.552000000    -3.467000000    -8.769000000
