201
-1226.22448
C    -3.843000000    -3.225000000    -0.872000000
H    -4.489000000    -2.619000000    -0.243000000
C    -2.732000000    -3.753000000    -0.311000000
C    -1.909000000    -4.601000000    -1.034000000
H    -0.960000000    -4.962000000    -0.646000000
C    -2.231000000    -3.300000000     1.107000000
O    -3.325000000    -2.921000000     1.953000000
H    -1.598000000    -2.401000000     1.085000000
O    -1.471000000    -4.351000000     1.711000000
C    -0.325000000    -4.018000000     2.453000000
C     0.950000000    -4.272000000     1.840000000
H     0.974000000    -4.828000000     0.906000000
C     2.084000000    -3.561000000     2.271000000
O     3.069000000    -3.662000000     1.381000000
C     2.054000000    -2.809000000     3.421000000
C     3.285000000    -2.177000000     3.973000000
H     3.175000000    -2.135000000     5.058000000
C     3.442000000    -0.797000000     3.447000000
C     2.889000000     0.264000000     4.088000000
H     2.323000000     0.064000000     4.994000000
H     4.159000000    -2.805000000     3.787000000
C     0.860000000    -2.703000000     4.197000000
H     0.762000000    -2.070000000     5.076000000
C    -0.324000000    -3.249000000     3.624000000
C    -1.670000000    -2.987000000     4.342000000
H    -1.390000000    -2.808000000     5.382000000
H    -2.314000000    -3.858000000     4.201000000
C    -2.386000000    -1.769000000     3.865000000
C    -2.209000000    -0.530000000     4.595000000
H    -1.517000000    -0.465000000     5.431000000
C    -3.231000000    -1.826000000     2.770000000
C    -3.865000000    -0.622000000     2.324000000
H    -4.534000000    -0.639000000     1.467000000
C    -3.704000000     0.571000000     2.985000000
O    -4.188000000     1.700000000     2.386000000
C    -3.308000000     2.408000000     1.482000000
C    -3.935000000     2.676000000     0.110000000
C    -3.118000000     3.455000000    -0.783000000
H    -2.129000000     3.793000000    -0.484000000
C    -5.065000000     2.040000000    -0.341000000
H    -5.712000000     1.464000000     0.316000000
O    -2.825000000     3.592000000     2.190000000
H    -2.397000000     1.793000000     1.433000000
C    -2.889000000     0.572000000     4.192000000
C    -2.581000000     2.005000000     4.671000000
H    -2.284000000     1.783000000     5.698000000
H    -3.445000000     2.672000000     4.647000000
C    -1.366000000     2.613000000     3.892000000
C    -0.087000000     2.414000000     4.432000000
H     0.044000000     1.909000000     5.385000000
C    -1.566000000     3.413000000     2.776000000
C    -0.500000000     3.983000000     2.150000000
H    -0.662000000     4.571000000     1.251000000
C     0.746000000     3.764000000     2.609000000
O     1.785000000     4.289000000     1.857000000
C     2.509000000     3.372000000     0.974000000
C     2.861000000     4.007000000    -0.364000000
C     2.254000000     5.246000000    -0.829000000
H     1.742000000     5.891000000    -0.120000000
C     3.449000000     3.260000000    -1.353000000
H     3.949000000     2.361000000    -1.000000000
O     3.645000000     2.911000000     1.623000000
H     1.915000000     2.483000000     0.718000000
C     1.004000000     2.981000000     3.731000000
C     2.410000000     2.743000000     4.252000000
H     2.434000000     2.634000000     5.338000000
H     2.969000000     3.674000000     4.137000000
C     2.926000000     1.531000000     3.512000000
C     3.518000000     1.689000000     2.263000000
C     4.099000000     0.606000000     1.575000000
H     4.660000000     0.819000000     0.669000000
C     4.129000000    -0.603000000     2.234000000
O     4.511000000    -1.783000000     1.575000000
C     3.442000000    -2.430000000     0.765000000
H     2.530000000    -1.820000000     0.691000000
C     3.830000000    -2.688000000    -0.662000000
C     3.249000000    -3.732000000    -1.384000000
H     2.372000000    -4.247000000    -1.000000000
C     4.801000000    -1.918000000    -1.306000000
H     5.163000000    -1.024000000    -0.804000000
C     5.230000000    -2.215000000    -2.659000000
O     6.302000000    -1.444000000    -3.220000000
C     4.634000000    -3.287000000    -3.377000000
H     4.969000000    -3.533000000    -4.381000000
C     3.670000000    -4.053000000    -2.671000000
O     3.088000000    -5.155000000    -3.347000000
C     2.060000000    -5.881000000    -2.955000000
C     0.743000000    -5.458000000    -3.102000000
H     0.524000000    -4.506000000    -3.579000000
C     2.303000000    -7.130000000    -2.314000000
H     3.342000000    -7.406000000    -2.152000000
C     1.250000000    -7.937000000    -1.953000000
H     1.456000000    -8.864000000    -1.424000000
C    -0.091000000    -7.485000000    -2.197000000
H    -0.932000000    -8.136000000    -1.970000000
C    -0.317000000    -6.270000000    -2.804000000
O    -1.572000000    -5.861000000    -3.183000000
C    -2.261000000    -4.954000000    -2.355000000
C    -3.432000000    -4.467000000    -2.877000000
H    -3.622000000    -4.572000000    -3.942000000
C    -4.191000000    -3.542000000    -2.158000000
O    -5.271000000    -2.975000000    -2.901000000
C    -6.105000000    -1.990000000    -2.412000000
C    -5.817000000    -0.680000000    -2.603000000
H    -5.029000000    -0.340000000    -3.269000000
C    -7.244000000    -2.482000000    -1.750000000
H    -7.561000000    -3.522000000    -1.753000000
C    -8.057000000    -1.576000000    -1.198000000
H    -8.989000000    -1.857000000    -0.715000000
C    -7.810000000    -0.240000000    -1.205000000
H    -8.577000000     0.433000000    -0.832000000
C    -6.671000000     0.197000000    -1.964000000
O    -6.546000000     1.574000000    -2.067000000
C    -5.429000000     2.183000000    -1.678000000
C    -4.713000000     2.979000000    -2.549000000
H    -5.037000000     3.048000000    -3.584000000
C    -3.536000000     3.620000000    -2.082000000
O    -2.784000000     4.418000000    -2.888000000
C    -2.115000000     5.521000000    -2.494000000
C    -0.729000000     5.606000000    -2.622000000
H    -0.290000000     4.722000000    -3.078000000
C    -2.776000000     6.720000000    -2.203000000
H    -3.850000000     6.655000000    -2.049000000
C    -2.056000000     7.918000000    -1.968000000
H    -2.665000000     8.772000000    -1.681000000
C    -0.631000000     7.899000000    -2.007000000
H    -0.099000000     8.817000000    -1.772000000
C     0.024000000     6.699000000    -2.331000000
O     1.391000000     6.686000000    -2.642000000
C     2.243000000     5.665000000    -2.133000000
C     2.922000000     4.820000000    -3.051000000
H     2.866000000     4.975000000    -4.126000000
C     3.554000000     3.652000000    -2.663000000
O     4.034000000     2.775000000    -3.612000000
C     5.146000000     2.021000000    -3.428000000
C     6.310000000     2.724000000    -3.169000000
H     6.330000000     3.811000000    -3.199000000
C     7.462000000     2.027000000    -2.895000000
H     8.434000000     2.444000000    -2.641000000
C     7.430000000     0.644000000    -2.881000000
H     8.382000000     0.152000000    -2.700000000
C     6.321000000    -0.079000000    -3.163000000
C     5.172000000     0.630000000    -3.456000000
H     4.280000000     0.082000000    -3.750000000
O     1.611000000    -2.643000000    -9.157000000
H     1.108000000    -2.055000000    -8.593000000
H     2.496000000    -2.626000000    -8.792000000
O    -0.789000000     1.689000000    -8.489000000
H    -0.594000000     2.588000000    -8.753000000
H    -0.014000000     1.408000000    -8.003000000
O    -3.480000000    -2.549000000    -9.375000000
H    -3.173000000    -2.370000000   -10.264000000
H    -2.744000000    -2.990000000    -8.952000000
O     1.300000000    -4.362000000    -6.318000000
H     0.423000000    -4.289000000    -5.942000000
H     1.754000000    -3.573000000    -6.021000000
O    -3.117000000     4.938000000    -6.666000000
H    -3.060000000     4.721000000    -7.596000000
H    -2.472000000     4.368000000    -6.247000000
O     1.316000000     0.810000000    -6.870000000
H     1.509000000     1.748000000    -6.888000000
H     0.698000000     0.706000000    -6.147000000
O     4.104000000    -2.717000000    -7.503000000
H     3.416000000    -2.372000000    -6.934000000
H     4.423000000    -3.496000000    -7.048000000
O    -1.199000000    -4.055000000    -8.746000000
H    -0.528000000    -3.380000000    -8.643000000
H    -0.765000000    -4.866000000    -8.484000000
O     0.860000000     4.268000000    -6.515000000
H     0.182000000     3.785000000    -6.044000000
H     0.406000000     4.644000000    -7.269000000
O    -5.445000000    -4.158000000    -6.024000000
H    -5.375000000    -3.217000000    -6.189000000
H    -5.747000000    -4.220000000    -5.118000000
O    -2.863000000     0.132000000    -5.799000000
H    -3.174000000    -0.168000000    -4.945000000
H    -1.956000000     0.398000000    -5.644000000
O    -0.586000000     0.363000000   -10.750000000
H    -1.104000000     1.083000000   -11.110000000
H    -0.507000000     0.568000000    -9.818000000
O    -0.580000000    -1.474000000    -7.781000000
H    -1.533000000    -1.418000000    -7.849000000
H    -0.379000000    -1.114000000    -6.917000000
O    -1.261000000    -3.848000000    -5.587000000
H    -1.096000000    -3.063000000    -5.065000000
H    -1.954000000    -3.591000000    -6.195000000
O    -3.391000000     1.985000000    -7.981000000
H    -2.493000000     2.029000000    -8.309000000
H    -3.379000000     1.271000000    -7.344000000
O     3.209000000     3.361000000    -7.209000000
H     3.620000000     4.129000000    -7.604000000
H     2.341000000     3.663000000    -6.944000000
O    -5.403000000    -1.463000000    -6.543000000
H    -5.514000000    -1.345000000    -7.486000000
H    -6.160000000    -1.023000000    -6.156000000
O     2.271000000    -1.931000000    -5.661000000
H     1.372000000    -1.782000000    -5.371000000
H     2.727000000    -1.114000000    -5.455000000
O    -1.198000000     3.192000000    -5.253000000
H    -1.905000000     3.276000000    -4.614000000
H    -0.849000000     2.313000000    -5.111000000
