201
-1254.37573
C    -3.956000000    -3.869000000    -0.635000000
H    -4.554000000    -3.443000000     0.167000000
C    -2.596000000    -3.992000000    -0.433000000
C    -1.836000000    -4.420000000    -1.533000000
H    -0.763000000    -4.551000000    -1.413000000
C    -1.949000000    -3.651000000     0.914000000
O    -2.886000000    -3.474000000     2.018000000
H    -1.459000000    -2.669000000     0.853000000
O    -1.032000000    -4.642000000     1.221000000
C     0.166000000    -4.174000000     1.757000000
C     1.214000000    -4.212000000     0.884000000
H     1.052000000    -4.497000000    -0.153000000
C     2.438000000    -3.797000000     1.240000000
O     3.355000000    -3.673000000     0.235000000
C     2.619000000    -3.307000000     2.548000000
C     3.918000000    -2.688000000     2.958000000
H     4.028000000    -2.758000000     4.042000000
C     3.983000000    -1.213000000     2.592000000
C     3.435000000    -0.280000000     3.492000000
H     3.025000000    -0.610000000     4.443000000
H     4.718000000    -3.298000000     2.532000000
C     1.530000000    -3.314000000     3.427000000
H     1.706000000    -2.913000000     4.423000000
C     0.261000000    -3.737000000     3.068000000
C    -0.917000000    -3.742000000     4.089000000
H    -0.573000000    -3.853000000     5.120000000
H    -1.463000000    -4.657000000     3.850000000
C    -1.825000000    -2.532000000     3.942000000
C    -1.637000000    -1.340000000     4.661000000
H    -0.950000000    -1.383000000     5.502000000
C    -2.697000000    -2.437000000     2.860000000
C    -3.216000000    -1.224000000     2.458000000
H    -3.861000000    -1.219000000     1.584000000
C    -3.029000000    -0.103000000     3.249000000
O    -3.632000000     1.024000000     2.821000000
C    -2.871000000     2.065000000     2.042000000
C    -3.507000000     2.510000000     0.790000000
C    -3.227000000     3.752000000     0.146000000
H    -2.563000000     4.467000000     0.624000000
C    -4.391000000     1.595000000     0.139000000
H    -4.853000000     0.787000000     0.700000000
O    -2.375000000     3.122000000     2.876000000
H    -1.954000000     1.554000000     1.715000000
C    -2.239000000    -0.199000000     4.359000000
C    -1.925000000     1.139000000     5.087000000
H    -1.618000000     1.073000000     6.133000000
H    -2.811000000     1.776000000     5.027000000
C    -0.837000000     1.913000000     4.336000000
C     0.522000000     1.728000000     4.657000000
H     0.841000000     0.925000000     5.316000000
C    -1.130000000     2.977000000     3.458000000
C    -0.141000000     3.821000000     2.935000000
H    -0.454000000     4.549000000     2.191000000
C     1.194000000     3.494000000     3.141000000
O     2.174000000     4.082000000     2.367000000
C     2.508000000     3.265000000     1.208000000
C     2.313000000     4.148000000     0.017000000
C     1.583000000     5.336000000     0.077000000
H     1.271000000     5.852000000     0.981000000
C     2.786000000     3.680000000    -1.172000000
H     3.255000000     2.702000000    -1.235000000
O     3.814000000     2.816000000     1.403000000
H     1.829000000     2.400000000     1.174000000
C     1.569000000     2.386000000     3.983000000
C     3.063000000     2.036000000     4.212000000
H     3.236000000     1.686000000     5.232000000
H     3.754000000     2.877000000     4.122000000
C     3.550000000     1.132000000     3.200000000
C     3.979000000     1.528000000     1.883000000
C     4.422000000     0.552000000     0.988000000
H     4.746000000     0.884000000     0.005000000
C     4.399000000    -0.822000000     1.283000000
O     4.725000000    -1.718000000     0.280000000
C     3.611000000    -2.373000000    -0.330000000
H     2.725000000    -1.736000000    -0.188000000
C     3.820000000    -2.462000000    -1.866000000
C     3.262000000    -3.541000000    -2.591000000
H     2.860000000    -4.399000000    -2.058000000
C     4.317000000    -1.373000000    -2.642000000
H     4.685000000    -0.524000000    -2.072000000
C     4.518000000    -1.409000000    -3.986000000
O     5.056000000    -0.324000000    -4.603000000
C     4.170000000    -2.585000000    -4.640000000
H     4.420000000    -2.687000000    -5.693000000
C     3.481000000    -3.640000000    -3.962000000
O     3.169000000    -4.828000000    -4.595000000
C     2.023000000    -5.586000000    -4.229000000
C     0.727000000    -4.979000000    -4.306000000
H     0.616000000    -3.980000000    -4.720000000
C     2.185000000    -6.782000000    -3.598000000
H     3.179000000    -7.156000000    -3.365000000
C     1.104000000    -7.423000000    -3.001000000
H     1.252000000    -8.360000000    -2.471000000
C    -0.127000000    -6.821000000    -3.026000000
H    -0.971000000    -7.360000000    -2.603000000
C    -0.355000000    -5.656000000    -3.759000000
O    -1.676000000    -5.122000000    -3.786000000
C    -2.441000000    -4.753000000    -2.765000000
C    -3.804000000    -4.580000000    -2.933000000
H    -4.328000000    -4.694000000    -3.879000000
C    -4.592000000    -4.149000000    -1.878000000
O    -5.915000000    -3.881000000    -2.018000000
C    -6.369000000    -2.623000000    -1.603000000
C    -5.682000000    -1.424000000    -1.857000000
H    -4.785000000    -1.449000000    -2.470000000
C    -7.527000000    -2.649000000    -0.870000000
H    -7.990000000    -3.616000000    -0.690000000
C    -8.003000000    -1.394000000    -0.384000000
H    -8.939000000    -1.254000000     0.150000000
C    -7.400000000    -0.233000000    -0.766000000
H    -7.850000000     0.669000000    -0.359000000
C    -6.220000000    -0.177000000    -1.513000000
O    -5.607000000     1.014000000    -1.943000000
C    -4.845000000     1.865000000    -1.158000000
C    -4.576000000     3.116000000    -1.680000000
H    -4.977000000     3.514000000    -2.608000000
C    -3.885000000     4.087000000    -1.025000000
O    -3.632000000     5.308000000    -1.605000000
C    -2.911000000     6.378000000    -1.136000000
C    -1.550000000     6.313000000    -1.392000000
H    -1.166000000     5.538000000    -2.051000000
C    -3.505000000     7.436000000    -0.433000000
H    -4.578000000     7.544000000    -0.296000000
C    -2.595000000     8.405000000     0.071000000
H    -3.016000000     9.169000000     0.719000000
C    -1.196000000     8.320000000    -0.060000000
H    -0.633000000     9.045000000     0.523000000
C    -0.702000000     7.290000000    -0.859000000
O     0.651000000     7.209000000    -1.027000000
C     1.430000000     6.054000000    -1.107000000
C     1.931000000     5.643000000    -2.323000000
H     1.699000000     6.171000000    -3.244000000
C     2.623000000     4.462000000    -2.376000000
O     3.073000000     3.875000000    -3.598000000
C     4.170000000     3.017000000    -3.541000000
C     5.341000000     3.400000000    -2.935000000
H     5.455000000     4.316000000    -2.361000000
C     6.382000000     2.563000000    -2.967000000
H     7.246000000     2.863000000    -2.380000000
C     6.355000000     1.290000000    -3.518000000
H     7.231000000     0.651000000    -3.437000000
C     5.146000000     0.913000000    -4.086000000
C     4.074000000     1.787000000    -4.133000000
H     3.116000000     1.493000000    -4.554000000
O     2.706000000     1.952000000    -8.276000000
H     3.169000000     2.423000000    -8.969000000
H     2.473000000     2.629000000    -7.640000000
O     1.243000000     3.247000000    -5.970000000
H     0.680000000     2.571000000    -5.592000000
H     1.746000000     3.583000000    -5.228000000
O    -2.397000000    -1.989000000    -4.250000000
H    -1.837000000    -1.351000000    -4.692000000
H    -1.785000000    -2.609000000    -3.852000000
O    -4.286000000    -2.394000000    -6.274000000
H    -3.768000000    -2.244000000    -5.483000000
H    -5.134000000    -1.993000000    -6.085000000
O     1.223000000    -4.459000000    -7.915000000
H     0.748000000    -3.652000000    -7.716000000
H     1.430000000    -4.392000000    -8.847000000
O     4.048000000    -1.717000000    -8.226000000
H     4.879000000    -1.346000000    -7.929000000
H     3.395000000    -1.349000000    -7.631000000
O    -2.340000000    -4.320000000    -6.840000000
H    -3.009000000    -3.636000000    -6.803000000
H    -1.510000000    -3.847000000    -6.780000000
O    -4.018000000     6.582000000    -5.150000000
H    -4.889000000     6.186000000    -5.182000000
H    -3.472000000     5.924000000    -4.720000000
O     0.467000000     5.790000000    -7.510000000
H     0.706000000     5.380000000    -6.679000000
H    -0.061000000     6.548000000    -7.260000000
O     2.286000000    -0.500000000    -6.226000000
H     2.474000000     0.385000000    -6.537000000
H     1.423000000    -0.431000000    -5.816000000
O    -1.970000000     1.361000000    -6.781000000
H    -1.346000000     1.287000000    -6.059000000
H    -2.097000000     2.303000000    -6.893000000
O     1.057000000     0.330000000    -9.783000000
H     1.459000000     0.827000000    -9.070000000
H     1.399000000     0.735000000   -10.580000000
O    -1.512000000    -0.636000000    -8.928000000
H    -0.891000000    -0.298000000    -9.573000000
H    -1.566000000     0.051000000    -8.263000000
O    -1.853000000     4.015000000    -4.117000000
H    -2.612000000     3.733000000    -3.606000000
H    -1.399000000     3.202000000    -4.339000000
O    -4.479000000     3.005000000    -6.143000000
H    -3.843000000     3.640000000    -6.471000000
H    -3.949000000     2.255000000    -5.871000000
O     1.379000000    -2.496000000   -10.391000000
H     1.515000000    -1.794000000    -9.754000000
H     0.680000000    -2.171000000   -10.959000000
O    -2.094000000     4.132000000    -7.002000000
H    -1.141000000     4.200000000    -7.051000000
H    -2.414000000     4.930000000    -7.423000000
O    -0.352000000    -2.333000000    -7.081000000
H    -0.137000000    -1.732000000    -6.368000000
H    -0.793000000    -1.786000000    -7.731000000
O    -0.681000000     6.223000000    -4.730000000
H    -1.361000000     6.776000000    -5.116000000
H    -1.138000000     5.419000000    -4.482000000
