201
-1275.97025
C    -3.391000000    -3.170000000    -2.008000000
H    -4.041000000    -2.423000000    -1.561000000
C    -2.537000000    -3.941000000    -1.220000000
C    -1.710000000    -4.842000000    -1.889000000
H    -0.972000000    -5.392000000    -1.310000000
C    -2.469000000    -3.583000000     0.250000000
O    -3.695000000    -3.324000000     0.887000000
H    -1.830000000    -2.688000000     0.276000000
O    -1.712000000    -4.624000000     0.963000000
C    -0.745000000    -4.166000000     1.753000000
C     0.564000000    -4.196000000     1.307000000
H     0.760000000    -4.612000000     0.322000000
C     1.588000000    -3.653000000     2.042000000
O     2.796000000    -3.617000000     1.425000000
C     1.352000000    -3.237000000     3.388000000
C     2.545000000    -2.639000000     4.136000000
H     2.420000000    -2.745000000     5.215000000
C     2.700000000    -1.173000000     3.882000000
C     1.955000000    -0.193000000     4.588000000
H     1.135000000    -0.430000000     5.261000000
H     3.495000000    -3.153000000     3.973000000
C     0.001000000    -3.203000000     3.877000000
H    -0.274000000    -2.761000000     4.830000000
C    -1.004000000    -3.651000000     3.017000000
C    -2.475000000    -3.517000000     3.503000000
H    -2.553000000    -3.492000000     4.592000000
H    -3.075000000    -4.383000000     3.216000000
C    -3.067000000    -2.224000000     3.011000000
C    -3.079000000    -1.041000000     3.787000000
H    -2.413000000    -1.010000000     4.645000000
C    -3.708000000    -2.221000000     1.757000000
C    -4.359000000    -1.056000000     1.342000000
H    -4.773000000    -0.908000000     0.348000000
C    -4.313000000     0.138000000     2.083000000
O    -4.741000000     1.343000000     1.597000000
C    -3.745000000     2.232000000     1.030000000
C    -4.099000000     2.753000000    -0.340000000
C    -3.366000000     3.828000000    -0.919000000
H    -2.683000000     4.447000000    -0.343000000
C    -5.107000000     2.131000000    -1.050000000
H    -5.742000000     1.353000000    -0.633000000
O    -3.355000000     3.317000000     1.929000000
H    -2.821000000     1.642000000     0.931000000
C    -3.687000000     0.134000000     3.328000000
C    -3.568000000     1.355000000     4.141000000
H    -3.439000000     1.031000000     5.176000000
H    -4.496000000     1.928000000     4.084000000
C    -2.378000000     2.197000000     3.816000000
C    -1.191000000     1.962000000     4.545000000
H    -1.164000000     1.370000000     5.456000000
C    -2.301000000     3.157000000     2.801000000
C    -1.203000000     3.923000000     2.475000000
H    -1.246000000     4.612000000     1.636000000
C    -0.043000000     3.638000000     3.148000000
O     1.108000000     4.176000000     2.674000000
C     1.974000000     3.276000000     1.977000000
C     2.603000000     3.914000000     0.767000000
C     1.808000000     4.550000000    -0.186000000
H     0.747000000     4.578000000     0.049000000
C     3.952000000     3.769000000     0.530000000
H     4.696000000     3.254000000     1.133000000
O     3.085000000     2.885000000     2.893000000
H     1.402000000     2.394000000     1.652000000
C    -0.001000000     2.649000000     4.152000000
C     1.247000000     2.261000000     4.914000000
H     1.055000000     1.954000000     5.944000000
H     1.786000000     3.175000000     5.170000000
C     2.051000000     1.208000000     4.302000000
C     3.027000000     1.582000000     3.366000000
C     3.786000000     0.605000000     2.662000000
H     4.504000000     0.925000000     1.910000000
C     3.580000000    -0.769000000     2.800000000
O     4.036000000    -1.649000000     1.895000000
C     3.103000000    -2.277000000     0.925000000
H     2.189000000    -1.676000000     0.804000000
C     3.774000000    -2.382000000    -0.460000000
C     3.480000000    -3.513000000    -1.294000000
H     2.890000000    -4.345000000    -0.918000000
C     4.522000000    -1.300000000    -0.920000000
H     4.768000000    -0.524000000    -0.200000000
C     5.038000000    -1.259000000    -2.148000000
O     5.984000000    -0.300000000    -2.570000000
C     4.772000000    -2.313000000    -2.983000000
H     5.182000000    -2.417000000    -3.984000000
C     4.011000000    -3.437000000    -2.559000000
O     3.630000000    -4.319000000    -3.569000000
C     2.734000000    -5.374000000    -3.453000000
C     1.371000000    -5.174000000    -3.771000000
H     1.094000000    -4.128000000    -3.879000000
C     3.141000000    -6.689000000    -3.130000000
H     4.181000000    -6.951000000    -2.952000000
C     2.216000000    -7.703000000    -3.046000000
H     2.596000000    -8.636000000    -2.637000000
C     0.840000000    -7.464000000    -3.327000000
H     0.079000000    -8.202000000    -3.087000000
C     0.423000000    -6.231000000    -3.748000000
O    -1.004000000    -6.036000000    -3.838000000
C    -1.688000000    -5.023000000    -3.252000000
C    -2.570000000    -4.175000000    -3.996000000
H    -2.620000000    -4.270000000    -5.078000000
C    -3.396000000    -3.210000000    -3.412000000
O    -4.253000000    -2.474000000    -4.146000000
C    -5.245000000    -1.718000000    -3.549000000
C    -5.232000000    -0.340000000    -3.546000000
H    -4.338000000     0.146000000    -3.928000000
C    -6.331000000    -2.415000000    -3.058000000
H    -6.466000000    -3.491000000    -2.990000000
C    -7.454000000    -1.682000000    -2.597000000
H    -8.405000000    -2.127000000    -2.319000000
C    -7.462000000    -0.313000000    -2.639000000
H    -8.315000000     0.254000000    -2.275000000
C    -6.308000000     0.378000000    -3.061000000
O    -6.381000000     1.780000000    -3.121000000
C    -5.404000000     2.473000000    -2.367000000
C    -4.576000000     3.431000000    -2.954000000
H    -4.728000000     3.798000000    -3.966000000
C    -3.609000000     4.188000000    -2.201000000
O    -3.061000000     5.296000000    -2.857000000
C    -1.937000000     6.031000000    -2.493000000
C    -0.693000000     5.418000000    -2.465000000
H    -0.576000000     4.382000000    -2.770000000
C    -2.108000000     7.338000000    -2.000000000
H    -3.112000000     7.749000000    -1.934000000
C    -0.956000000     8.099000000    -1.652000000
H    -1.129000000     9.090000000    -1.239000000
C     0.299000000     7.545000000    -1.797000000
H     1.168000000     8.042000000    -1.373000000
C     0.421000000     6.207000000    -2.195000000
O     1.683000000     5.612000000    -2.461000000
C     2.402000000     4.985000000    -1.435000000
C     3.751000000     4.882000000    -1.637000000
H     4.169000000     5.418000000    -2.486000000
C     4.530000000     4.318000000    -0.648000000
O     5.880000000     4.164000000    -0.774000000
C     6.416000000     2.915000000    -0.834000000
C     7.729000000     2.706000000    -0.315000000
H     8.175000000     3.508000000     0.267000000
C     8.426000000     1.554000000    -0.480000000
H     9.452000000     1.469000000    -0.130000000
C     7.795000000     0.527000000    -1.140000000
H     8.371000000    -0.364000000    -1.378000000
C     6.549000000     0.666000000    -1.709000000
C     5.897000000     1.884000000    -1.633000000
H     5.038000000     2.090000000    -2.266000000
O     1.736000000     2.128000000    -4.496000000
H     1.849000000     2.023000000    -3.551000000
H     2.535000000     2.569000000    -4.785000000
O    -3.368000000     2.624000000    -6.701000000
H    -3.108000000     2.087000000    -5.953000000
H    -4.309000000     2.472000000    -6.789000000
O     0.130000000     5.228000000    -7.104000000
H    -0.194000000     4.610000000    -6.449000000
H    -0.587000000     5.852000000    -7.220000000
O    -1.517000000     0.828000000    -7.673000000
H    -2.308000000     1.346000000    -7.522000000
H    -1.348000000     0.400000000    -6.833000000
O    -6.088000000     2.052000000    -6.829000000
H    -6.827000000     2.243000000    -6.251000000
H    -6.113000000     1.102000000    -6.944000000
O    -1.311000000    -1.384000000    -9.462000000
H    -1.634000000    -0.674000000    -8.906000000
H    -0.379000000    -1.446000000    -9.252000000
O     1.236000000     0.964000000   -10.714000000
H     0.958000000     1.376000000    -9.896000000
H     1.625000000     1.677000000   -11.221000000
O    -6.283000000    -3.992000000    -6.530000000
H    -7.079000000    -3.485000000    -6.687000000
H    -5.573000000    -3.355000000    -6.608000000
O    -3.632000000    -3.804000000    -8.953000000
H    -2.753000000    -4.169000000    -8.852000000
H    -3.487000000    -2.907000000    -9.253000000
O    -3.607000000    -1.780000000    -6.879000000
H    -3.373000000    -2.543000000    -7.408000000
H    -3.086000000    -1.873000000    -6.081000000
O    -0.677000000     3.249000000    -5.242000000
H     0.115000000     2.914000000    -4.820000000
H    -1.279000000     2.504000000    -5.247000000
O    -1.042000000    -5.042000000    -8.888000000
H    -0.524000000    -4.276000000    -8.642000000
H    -0.901000000    -5.665000000    -8.174000000
O    -0.608000000    -2.879000000    -7.039000000
H     0.336000000    -3.036000000    -7.018000000
H    -0.770000000    -2.298000000    -6.295000000
O     1.237000000    -1.014000000    -5.579000000
H     1.532000000    -0.114000000    -5.439000000
H     0.382000000    -1.056000000    -5.150000000
O    -6.112000000    -0.620000000    -7.453000000
H    -5.445000000    -1.002000000    -6.882000000
H    -5.621000000    -0.287000000    -8.204000000
O    -3.006000000     5.129000000    -5.856000000
H    -2.555000000     5.118000000    -5.012000000
H    -2.937000000     4.230000000    -6.176000000
O     0.459000000     2.408000000    -8.602000000
H    -0.177000000     1.736000000    -8.358000000
H     0.910000000     2.620000000    -7.785000000
O     1.918000000    -3.225000000    -6.727000000
H     2.736000000    -3.184000000    -7.222000000
H     1.870000000    -2.383000000    -6.274000000
O    -4.190000000     0.284000000    -9.273000000
H    -3.365000000     0.123000000    -8.815000000
H    -4.251000000    -0.426000000    -9.912000000
