201
-1227.12483
C    -3.791000000    -3.217000000    -2.519000000
H    -4.606000000    -2.805000000    -1.930000000
C    -2.608000000    -3.780000000    -1.812000000
C    -1.630000000    -4.422000000    -2.577000000
H    -0.758000000    -4.818000000    -2.062000000
C    -2.406000000    -3.735000000    -0.346000000
O    -3.745000000    -3.618000000     0.300000000
H    -1.890000000    -2.809000000    -0.055000000
O    -1.570000000    -4.813000000     0.240000000
C    -0.593000000    -4.381000000     0.959000000
C     0.739000000    -4.401000000     0.526000000
H     0.975000000    -4.636000000    -0.509000000
C     1.749000000    -3.944000000     1.353000000
O     3.013000000    -3.806000000     0.791000000
C     1.458000000    -3.676000000     2.731000000
C     2.634000000    -3.334000000     3.713000000
H     2.296000000    -3.624000000     4.710000000
C     2.898000000    -1.840000000     3.635000000
C     2.316000000    -0.969000000     4.640000000
H     1.806000000    -1.285000000     5.546000000
H     3.464000000    -3.979000000     3.419000000
C     0.161000000    -3.840000000     3.230000000
H    -0.087000000    -3.566000000     4.253000000
C    -0.827000000    -4.210000000     2.346000000
C    -2.228000000    -4.372000000     2.839000000
H    -2.280000000    -4.592000000     3.907000000
H    -2.789000000    -5.178000000     2.361000000
C    -3.036000000    -3.098000000     2.593000000
C    -3.021000000    -2.071000000     3.571000000
H    -2.513000000    -2.244000000     4.516000000
C    -3.805000000    -2.833000000     1.430000000
C    -4.390000000    -1.604000000     1.257000000
H    -4.930000000    -1.423000000     0.331000000
C    -4.319000000    -0.648000000     2.201000000
O    -4.742000000     0.620000000     1.774000000
C    -3.702000000     1.618000000     1.578000000
C    -3.870000000     2.491000000     0.253000000
C    -3.752000000     3.891000000     0.238000000
H    -3.517000000     4.460000000     1.134000000
C    -4.100000000     1.778000000    -0.906000000
H    -3.876000000     0.716000000    -0.973000000
O    -3.485000000     2.451000000     2.700000000
H    -2.868000000     0.913000000     1.438000000
C    -3.669000000    -0.883000000     3.429000000
C    -3.524000000     0.201000000     4.476000000
H    -3.492000000    -0.241000000     5.474000000
H    -4.420000000     0.819000000     4.386000000
C    -2.275000000     1.119000000     4.286000000
C    -1.077000000     0.939000000     4.942000000
H    -1.057000000     0.129000000     5.668000000
C    -2.308000000     2.186000000     3.352000000
C    -1.268000000     2.899000000     2.990000000
H    -1.428000000     3.785000000     2.381000000
C     0.003000000     2.607000000     3.541000000
O     1.069000000     3.385000000     3.123000000
C     1.999000000     2.809000000     2.228000000
C     2.420000000     3.795000000     1.121000000
C     1.481000000     4.782000000     0.713000000
H     0.435000000     4.821000000     1.005000000
C     3.673000000     3.711000000     0.578000000
H     4.479000000     3.092000000     0.964000000
O     3.055000000     2.296000000     3.020000000
H     1.568000000     1.950000000     1.694000000
C     0.056000000     1.700000000     4.590000000
C     1.413000000     1.407000000     5.252000000
H     1.323000000     1.034000000     6.275000000
H     1.892000000     2.388000000     5.235000000
C     2.271000000     0.444000000     4.397000000
C     3.084000000     0.925000000     3.316000000
C     3.740000000     0.103000000     2.493000000
H     4.255000000     0.508000000     1.626000000
C     3.655000000    -1.264000000     2.622000000
O     4.169000000    -1.933000000     1.563000000
C     3.270000000    -2.408000000     0.558000000
H     2.320000000    -1.894000000     0.766000000
C     3.786000000    -2.089000000    -0.788000000
C     3.359000000    -2.861000000    -1.884000000
H     2.514000000    -3.532000000    -1.750000000
C     4.756000000    -1.135000000    -0.983000000
H     4.999000000    -0.405000000    -0.215000000
C     5.305000000    -0.963000000    -2.249000000
O     6.145000000     0.080000000    -2.637000000
C     4.845000000    -1.758000000    -3.282000000
H     5.266000000    -1.723000000    -4.283000000
C     3.782000000    -2.576000000    -3.139000000
O     3.279000000    -3.229000000    -4.257000000
C     2.574000000    -4.375000000    -4.201000000
C     1.185000000    -4.260000000    -4.198000000
H     0.692000000    -3.298000000    -4.308000000
C     3.119000000    -5.596000000    -4.060000000
H     4.203000000    -5.638000000    -3.982000000
C     2.388000000    -6.754000000    -4.054000000
H     2.821000000    -7.748000000    -4.124000000
C     1.072000000    -6.684000000    -4.226000000
H     0.419000000    -7.548000000    -4.314000000
C     0.444000000    -5.437000000    -4.351000000
O    -0.893000000    -5.383000000    -4.589000000
C    -1.807000000    -4.538000000    -3.935000000
C    -2.902000000    -4.019000000    -4.615000000
H    -2.960000000    -4.060000000    -5.700000000
C    -3.836000000    -3.276000000    -3.897000000
O    -4.858000000    -2.675000000    -4.534000000
C    -5.437000000    -1.462000000    -4.177000000
C    -4.563000000    -0.415000000    -3.835000000
H    -3.487000000    -0.526000000    -3.736000000
C    -6.813000000    -1.326000000    -4.225000000
H    -7.419000000    -2.199000000    -4.453000000
C    -7.326000000    -0.062000000    -3.928000000
H    -8.392000000     0.152000000    -3.897000000
C    -6.465000000     1.006000000    -3.571000000
H    -6.870000000     1.985000000    -3.328000000
C    -5.036000000     0.794000000    -3.513000000
O    -4.160000000     1.812000000    -3.325000000
C    -4.131000000     2.443000000    -2.125000000
C    -3.963000000     3.787000000    -2.153000000
H    -3.886000000     4.277000000    -3.120000000
C    -3.834000000     4.602000000    -0.966000000
O    -3.664000000     5.995000000    -1.036000000
C    -2.513000000     6.541000000    -0.549000000
C    -1.275000000     6.122000000    -1.001000000
H    -1.214000000     5.379000000    -1.792000000
C    -2.601000000     7.723000000     0.247000000
H    -3.601000000     7.996000000     0.574000000
C    -1.505000000     8.334000000     0.785000000
H    -1.682000000     9.172000000     1.455000000
C    -0.232000000     7.915000000     0.451000000
H     0.603000000     8.574000000     0.677000000
C    -0.146000000     6.871000000    -0.482000000
O     1.104000000     6.576000000    -0.987000000
C     1.886000000     5.638000000    -0.412000000
C     3.187000000     5.502000000    -0.915000000
H     3.515000000     6.162000000    -1.714000000
C     4.081000000     4.557000000    -0.417000000
O     5.453000000     4.540000000    -0.916000000
C     6.198000000     3.380000000    -1.075000000
C     7.466000000     3.363000000    -0.477000000
H     7.629000000     4.241000000     0.142000000
C     8.251000000     2.235000000    -0.480000000
H     9.173000000     2.165000000     0.092000000
C     7.756000000     1.105000000    -1.131000000
H     8.394000000     0.225000000    -1.137000000
C     6.510000000     1.126000000    -1.785000000
C     5.695000000     2.278000000    -1.777000000
H     4.742000000     2.321000000    -2.297000000
O     0.116000000     2.144000000    -7.660000000
H    -0.093000000     1.743000000    -6.816000000
H     1.034000000     1.918000000    -7.811000000
O    -0.001000000     4.657000000    -4.781000000
H    -0.725000000     5.281000000    -4.750000000
H    -0.424000000     3.798000000    -4.770000000
O     3.306000000    -0.059000000    -8.896000000
H     3.045000000     0.802000000    -8.572000000
H     3.846000000     0.128000000    -9.664000000
O    -5.682000000     3.188000000    -7.176000000
H    -5.676000000     3.839000000    -7.877000000
H    -5.137000000     2.474000000    -7.508000000
O    -2.441000000    -0.981000000    -6.656000000
H    -1.734000000    -0.473000000    -6.259000000
H    -2.077000000    -1.292000000    -7.485000000
O     0.553000000     1.427000000   -10.550000000
H    -0.388000000     1.379000000   -10.381000000
H     0.867000000     0.534000000   -10.414000000
O    -4.832000000    -2.359000000    -7.951000000
H    -4.077000000    -2.260000000    -7.372000000
H    -4.917000000    -1.509000000    -8.383000000
O    -2.937000000     4.030000000    -5.960000000
H    -2.338000000     3.359000000    -5.631000000
H    -3.791000000     3.599000000    -5.982000000
O    -0.731000000    -3.852000000    -7.991000000
H    -1.369000000    -3.165000000    -8.183000000
H    -1.217000000    -4.669000000    -8.103000000
O    -4.424000000     0.771000000    -6.613000000
H    -4.595000000     0.611000000    -5.685000000
H    -3.619000000     0.287000000    -6.795000000
O    -2.073000000     3.738000000    -8.444000000
H    -1.249000000     3.316000000    -8.200000000
H    -2.541000000     3.847000000    -7.616000000
O    -1.320000000    -1.376000000    -9.226000000
H    -1.908000000    -1.058000000    -9.912000000
H    -0.451000000    -1.357000000    -9.627000000
O     1.755000000    -0.152000000    -6.466000000
H     1.721000000    -0.926000000    -7.028000000
H     0.883000000    -0.102000000    -6.075000000
O    -2.082000000     6.548000000    -5.146000000
H    -2.575000000     5.742000000    -5.304000000
H    -2.749000000     7.197000000    -4.925000000
O     2.559000000     4.817000000    -4.203000000
H     1.620000000     4.724000000    -4.364000000
H     2.958000000     4.093000000    -4.685000000
O     2.472000000     2.472000000    -5.950000000
H     1.539000000     2.548000000    -5.753000000
H     2.628000000     1.530000000    -6.011000000
O     4.493000000    -1.408000000    -6.875000000
H     3.865000000    -1.265000000    -7.583000000
H     3.969000000    -1.355000000    -6.075000000
O    -0.101000000     6.568000000    -7.665000000
H    -0.555000000     6.938000000    -6.908000000
H    -0.637000000     5.818000000    -7.923000000
O    -3.850000000     2.058000000    -9.523000000
H    -3.209000000     2.737000000    -9.315000000
H    -3.862000000     1.495000000    -8.749000000
