201
-1251.94805
C    -3.243000000    -2.665000000    -3.134000000
H    -3.883000000    -2.060000000    -2.497000000
C    -2.354000000    -3.529000000    -2.470000000
C    -1.408000000    -4.336000000    -3.164000000
H    -0.768000000    -5.003000000    -2.592000000
C    -2.347000000    -3.533000000    -0.917000000
O    -3.721000000    -3.525000000    -0.395000000
H    -1.774000000    -2.709000000    -0.466000000
O    -1.787000000    -4.794000000    -0.351000000
C    -0.861000000    -4.644000000     0.598000000
C     0.509000000    -4.501000000     0.296000000
H     0.768000000    -4.453000000    -0.758000000
C     1.401000000    -4.059000000     1.242000000
O     2.672000000    -3.820000000     0.896000000
C     0.957000000    -3.885000000     2.525000000
C     1.937000000    -3.471000000     3.624000000
H     1.552000000    -3.810000000     4.588000000
C     2.189000000    -1.950000000     3.660000000
C     1.490000000    -1.141000000     4.511000000
H     0.676000000    -1.542000000     5.111000000
H     2.868000000    -4.002000000     3.413000000
C    -0.401000000    -4.010000000     2.850000000
H    -0.754000000    -3.950000000     3.876000000
C    -1.310000000    -4.356000000     1.897000000
C    -2.783000000    -4.418000000     2.227000000
H    -2.968000000    -4.626000000     3.283000000
H    -3.263000000    -5.227000000     1.672000000
C    -3.401000000    -3.024000000     1.945000000
C    -3.478000000    -2.110000000     2.995000000
H    -3.212000000    -2.416000000     4.003000000
C    -3.827000000    -2.700000000     0.652000000
C    -4.337000000    -1.488000000     0.478000000
H    -4.615000000    -1.199000000    -0.533000000
C    -4.296000000    -0.492000000     1.428000000
O    -4.507000000     0.774000000     0.950000000
C    -3.471000000     1.778000000     0.946000000
C    -3.587000000     2.792000000    -0.195000000
C    -3.361000000     4.138000000    -0.039000000
H    -3.137000000     4.577000000     0.930000000
C    -3.985000000     2.313000000    -1.426000000
H    -4.258000000     1.264000000    -1.501000000
O    -3.582000000     2.459000000     2.196000000
H    -2.495000000     1.274000000     0.893000000
C    -3.924000000    -0.813000000     2.749000000
C    -3.817000000     0.157000000     3.895000000
H    -3.793000000    -0.457000000     4.798000000
H    -4.684000000     0.817000000     3.967000000
C    -2.597000000     0.964000000     3.807000000
C    -1.504000000     0.711000000     4.597000000
H    -1.482000000    -0.243000000     5.119000000
C    -2.613000000     2.189000000     3.133000000
C    -1.494000000     2.926000000     3.006000000
H    -1.446000000     3.769000000     2.322000000
C    -0.286000000     2.478000000     3.577000000
O     0.762000000     3.212000000     3.347000000
C     1.853000000     2.651000000     2.615000000
C     2.479000000     3.680000000     1.641000000
C     1.737000000     4.785000000     1.243000000
H     0.820000000     5.158000000     1.691000000
C     3.536000000     3.274000000     0.929000000
H     4.137000000     2.415000000     1.214000000
O     2.780000000     2.192000000     3.557000000
H     1.486000000     1.830000000     1.981000000
C    -0.327000000     1.467000000     4.576000000
C     0.884000000     1.020000000     5.458000000
H     0.591000000     0.412000000     6.317000000
H     1.358000000     1.918000000     5.859000000
C     1.724000000     0.233000000     4.565000000
C     2.650000000     0.815000000     3.785000000
C     3.354000000     0.043000000     2.899000000
H     3.914000000     0.520000000     2.099000000
C     3.095000000    -1.340000000     2.729000000
O     3.822000000    -2.058000000     1.860000000
C     3.110000000    -2.437000000     0.691000000
H     2.229000000    -1.788000000     0.575000000
C     4.024000000    -2.281000000    -0.497000000
C     3.574000000    -2.918000000    -1.668000000
H     2.636000000    -3.466000000    -1.655000000
C     5.099000000    -1.408000000    -0.535000000
H     5.470000000    -0.804000000     0.289000000
C     5.775000000    -1.231000000    -1.739000000
O     6.960000000    -0.509000000    -1.881000000
C     5.402000000    -1.900000000    -2.893000000
H     5.989000000    -1.841000000    -3.806000000
C     4.305000000    -2.756000000    -2.844000000
O     3.833000000    -3.335000000    -3.991000000
C     2.858000000    -4.338000000    -4.057000000
C     1.637000000    -4.081000000    -4.703000000
H     1.373000000    -3.114000000    -5.124000000
C     3.216000000    -5.581000000    -3.578000000
H     4.139000000    -5.773000000    -3.037000000
C     2.341000000    -6.660000000    -3.698000000
H     2.577000000    -7.680000000    -3.404000000
C     1.121000000    -6.469000000    -4.288000000
H     0.422000000    -7.277000000    -4.490000000
C     0.759000000    -5.179000000    -4.761000000
O    -0.482000000    -5.041000000    -5.302000000
C    -1.405000000    -4.343000000    -4.562000000
C    -2.312000000    -3.457000000    -5.184000000
H    -2.181000000    -3.445000000    -6.263000000
C    -3.270000000    -2.656000000    -4.511000000
O    -3.996000000    -1.757000000    -5.213000000
C    -4.825000000    -0.768000000    -4.739000000
C    -4.330000000     0.486000000    -4.576000000
H    -3.259000000     0.614000000    -4.715000000
C    -6.130000000    -1.159000000    -4.372000000
H    -6.451000000    -2.198000000    -4.377000000
C    -6.999000000    -0.149000000    -3.920000000
H    -8.058000000    -0.379000000    -3.838000000
C    -6.527000000     1.143000000    -3.731000000
H    -7.216000000     1.906000000    -3.376000000
C    -5.183000000     1.476000000    -4.001000000
O    -4.688000000     2.789000000    -3.740000000
C    -4.137000000     3.171000000    -2.531000000
C    -3.926000000     4.539000000    -2.333000000
H    -4.088000000     5.187000000    -3.190000000
C    -3.510000000     5.023000000    -1.119000000
O    -3.206000000     6.366000000    -1.035000000
C    -2.146000000     6.819000000    -0.294000000
C    -0.826000000     6.403000000    -0.543000000
H    -0.591000000     5.789000000    -1.409000000
C    -2.369000000     7.743000000     0.815000000
H    -3.371000000     8.133000000     0.971000000
C    -1.303000000     8.250000000     1.517000000
H    -1.446000000     9.035000000     2.255000000
C    -0.001000000     7.948000000     1.129000000
H     0.723000000     8.409000000     1.797000000
C     0.263000000     6.917000000     0.187000000
O     1.554000000     6.651000000    -0.220000000
C     2.269000000     5.592000000     0.254000000
C     3.405000000     5.206000000    -0.427000000
H     3.769000000     5.786000000    -1.271000000
C     4.047000000     4.029000000    -0.073000000
O     5.307000000     3.719000000    -0.649000000
C     6.166000000     2.693000000    -0.364000000
C     6.839000000     2.678000000     0.834000000
H     6.794000000     3.525000000     1.514000000
C     7.784000000     1.671000000     1.061000000
H     8.359000000     1.713000000     1.982000000
C     7.863000000     0.557000000     0.162000000
H     8.326000000    -0.363000000     0.510000000
C     7.179000000     0.590000000    -1.066000000
C     6.301000000     1.674000000    -1.340000000
H     5.640000000     1.708000000    -2.202000000
O    -0.442000000     3.771000000    -7.402000000
H    -0.468000000     3.537000000    -6.474000000
H    -0.922000000     3.067000000    -7.840000000
O     2.309000000     4.080000000    -3.642000000
H     1.561000000     3.884000000    -4.206000000
H     1.930000000     4.186000000    -2.769000000
O    -4.376000000     5.205000000    -7.500000000
H    -3.829000000     5.959000000    -7.724000000
H    -4.127000000     4.988000000    -6.601000000
O     4.534000000     0.965000000    -8.094000000
H     5.321000000     0.420000000    -8.085000000
H     4.081000000     0.746000000    -7.280000000
O    -2.671000000     1.166000000    -7.379000000
H    -2.092000000     1.198000000    -6.617000000
H    -2.485000000     0.319000000    -7.785000000
O    -2.957000000     3.403000000    -8.954000000
H    -3.198000000     4.075000000    -8.316000000
H    -2.933000000     2.591000000    -8.449000000
O    -2.956000000     3.920000000    -5.490000000
H    -2.100000000     3.664000000    -5.146000000
H    -3.578000000     3.364000000    -5.020000000
O    -1.855000000     6.202000000    -8.005000000
H    -1.337000000     6.901000000    -7.605000000
H    -1.361000000     5.403000000    -7.820000000
O    -5.556000000     1.917000000    -7.253000000
H    -4.799000000     1.332000000    -7.279000000
H    -5.182000000     2.787000000    -7.113000000
O     1.715000000     4.685000000    -8.386000000
H     1.017000000     4.193000000    -7.954000000
H     1.772000000     5.503000000    -7.892000000
O    -2.247000000     7.719000000    -4.217000000
H    -3.174000000     7.689000000    -4.456000000
H    -2.222000000     8.247000000    -3.420000000
O     3.645000000     1.941000000    -4.665000000
H     4.599000000     2.014000000    -4.638000000
H     3.332000000     2.754000000    -4.268000000
O    -1.712000000    -1.420000000    -8.432000000
H    -1.316000000    -2.269000000    -8.632000000
H    -2.594000000    -1.475000000    -8.798000000
O     0.349000000    -0.616000000    -6.848000000
H    -0.381000000    -0.964000000    -7.361000000
H    -0.057000000     0.007000000    -6.245000000
O    -0.217000000     5.913000000    -4.229000000
H    -0.588000000     5.034000000    -4.312000000
H    -0.948000000     6.500000000    -4.420000000
O     2.085000000     0.045000000    -9.289000000
H     1.395000000    -0.380000000    -8.780000000
H     2.739000000     0.301000000    -8.638000000
O     3.868000000     6.245000000    -4.662000000
H     3.560000000     5.432000000    -4.261000000
H     3.916000000     6.867000000    -3.937000000
O     3.133000000    -0.491000000    -6.071000000
H     3.212000000     0.199000000    -5.413000000
H     2.190000000    -0.590000000    -6.203000000
O     1.990000000     6.676000000    -6.568000000
H     1.360000000     7.112000000    -5.995000000
H     2.823000000     6.738000000    -6.100000000
