201
-1263.87684
C    -4.877000000    -1.337000000    -2.306000000
H    -4.766000000    -0.725000000    -3.197000000
C    -4.977000000    -0.661000000    -1.053000000
C    -5.444000000    -1.399000000     0.069000000
H    -5.600000000    -0.943000000     1.044000000
C    -4.341000000     0.698000000    -0.890000000
O    -4.352000000     1.449000000    -2.136000000
H    -3.312000000     0.418000000    -0.620000000
O    -4.992000000     1.439000000     0.140000000
C    -4.168000000     2.088000000     1.052000000
C    -3.788000000     1.476000000     2.221000000
H    -4.200000000     0.511000000     2.505000000
C    -2.900000000     2.124000000     3.013000000
O    -2.364000000     1.313000000     4.058000000
C    -2.266000000     3.392000000     2.692000000
C    -1.112000000     3.940000000     3.567000000
H    -1.117000000     4.988000000     3.260000000
C     0.301000000     3.478000000     3.145000000
C     1.089000000     4.260000000     2.336000000
H     0.728000000     5.168000000     1.860000000
H    -1.255000000     3.831000000     4.644000000
C    -2.626000000     3.929000000     1.463000000
H    -2.099000000     4.803000000     1.089000000
C    -3.576000000     3.313000000     0.651000000
C    -3.860000000     3.983000000    -0.719000000
H    -3.710000000     5.064000000    -0.678000000
H    -4.888000000     3.772000000    -1.023000000
C    -2.967000000     3.440000000    -1.804000000
C    -1.841000000     4.138000000    -2.176000000
H    -1.643000000     5.064000000    -1.641000000
C    -3.201000000     2.189000000    -2.481000000
C    -2.329000000     1.687000000    -3.391000000
H    -2.582000000     0.736000000    -3.852000000
C    -1.149000000     2.336000000    -3.607000000
O    -0.259000000     1.807000000    -4.471000000
C     1.042000000     1.239000000    -3.940000000
C     1.212000000    -0.102000000    -4.640000000
C     2.525000000    -0.635000000    -4.835000000
H     3.403000000    -0.009000000    -4.700000000
C     0.117000000    -0.951000000    -4.767000000
H    -0.908000000    -0.590000000    -4.769000000
O     2.123000000     2.205000000    -4.124000000
H     1.032000000     0.956000000    -2.877000000
C    -0.957000000     3.623000000    -3.039000000
C     0.316000000     4.411000000    -3.127000000
H     0.204000000     5.482000000    -2.943000000
H     0.518000000     4.546000000    -4.191000000
C     1.568000000     3.864000000    -2.385000000
C     1.907000000     4.488000000    -1.140000000
H     1.381000000     5.305000000    -0.653000000
C     2.403000000     2.889000000    -2.954000000
C     3.465000000     2.420000000    -2.204000000
H     4.106000000     1.608000000    -2.538000000
C     3.725000000     2.999000000    -0.966000000
O     4.643000000     2.324000000    -0.132000000
C     4.122000000     1.426000000     0.873000000
C     4.901000000     0.126000000     0.913000000
C     5.585000000    -0.371000000    -0.189000000
H     5.629000000     0.278000000    -1.060000000
C     4.759000000    -0.690000000     1.968000000
H     4.355000000    -0.317000000     2.906000000
O     4.009000000     2.075000000     2.133000000
H     3.104000000     1.172000000     0.543000000
C     3.009000000     4.082000000    -0.428000000
C     3.254000000     4.581000000     0.989000000
H     2.816000000     5.578000000     1.058000000
H     4.324000000     4.453000000     1.166000000
C     2.340000000     3.795000000     1.983000000
C     2.803000000     2.580000000     2.452000000
C     2.028000000     1.778000000     3.358000000
H     2.287000000     0.761000000     3.640000000
C     0.810000000     2.284000000     3.679000000
O    -0.007000000     1.463000000     4.423000000
C    -1.100000000     0.605000000     3.883000000
H    -0.947000000     0.378000000     2.817000000
C    -1.100000000    -0.710000000     4.659000000
C    -2.308000000    -1.458000000     4.680000000
H    -3.281000000    -1.023000000     4.465000000
C     0.107000000    -1.280000000     5.069000000
H     1.064000000    -0.767000000     5.018000000
C     0.091000000    -2.631000000     5.485000000
O     1.280000000    -3.239000000     5.842000000
C    -1.091000000    -3.372000000     5.530000000
H    -1.159000000    -4.420000000     5.810000000
C    -2.287000000    -2.780000000     5.020000000
O    -3.377000000    -3.646000000     4.967000000
C    -4.555000000    -3.293000000     4.346000000
C    -4.759000000    -3.678000000     3.040000000
H    -3.948000000    -4.235000000     2.578000000
C    -5.557000000    -2.595000000     5.011000000
H    -5.383000000    -2.316000000     6.047000000
C    -6.732000000    -2.229000000     4.334000000
H    -7.517000000    -1.680000000     4.847000000
C    -6.850000000    -2.546000000     2.966000000
H    -7.778000000    -2.311000000     2.452000000
C    -5.816000000    -3.245000000     2.343000000
O    -5.879000000    -3.650000000     1.048000000
C    -5.788000000    -2.741000000    -0.072000000
C    -5.651000000    -3.406000000    -1.305000000
H    -5.878000000    -4.462000000    -1.428000000
C    -5.255000000    -2.711000000    -2.461000000
O    -5.214000000    -3.401000000    -3.627000000
C    -4.331000000    -3.012000000    -4.583000000
C    -2.928000000    -3.176000000    -4.419000000
H    -2.520000000    -3.526000000    -3.475000000
C    -4.785000000    -2.505000000    -5.804000000
H    -5.839000000    -2.253000000    -5.883000000
C    -3.888000000    -2.105000000    -6.791000000
H    -4.306000000    -1.627000000    -7.674000000
C    -2.511000000    -2.314000000    -6.656000000
H    -1.775000000    -2.246000000    -7.452000000
C    -2.051000000    -2.781000000    -5.432000000
O    -0.691000000    -3.195000000    -5.294000000
C     0.327000000    -2.304000000    -5.125000000
C     1.649000000    -2.799000000    -5.098000000
H     1.649000000    -3.877000000    -5.240000000
C     2.690000000    -1.977000000    -5.063000000
O     4.026000000    -2.525000000    -5.135000000
C     5.085000000    -1.923000000    -4.480000000
C     5.372000000    -2.436000000    -3.242000000
H     4.677000000    -3.114000000    -2.753000000
C     5.931000000    -1.013000000    -5.115000000
H     5.679000000    -0.805000000    -6.152000000
C     7.065000000    -0.517000000    -4.429000000
H     7.746000000     0.142000000    -4.961000000
C     7.360000000    -0.964000000    -3.135000000
H     8.261000000    -0.598000000    -2.649000000
C     6.512000000    -1.886000000    -2.538000000
O     6.736000000    -2.303000000    -1.259000000
C     6.137000000    -1.648000000    -0.197000000
C     5.993000000    -2.438000000     0.949000000
H     6.564000000    -3.357000000     1.054000000
C     5.320000000    -1.926000000     2.038000000
O     5.215000000    -2.708000000     3.193000000
C     4.440000000    -2.372000000     4.313000000
C     5.040000000    -1.580000000     5.335000000
H     6.087000000    -1.338000000     5.174000000
C     4.343000000    -1.372000000     6.501000000
H     4.897000000    -0.937000000     7.328000000
C     3.092000000    -1.905000000     6.708000000
H     2.594000000    -1.689000000     7.650000000
C     2.527000000    -2.676000000     5.769000000
C     3.153000000    -2.886000000     4.509000000
H     2.668000000    -3.606000000     3.855000000
O    -2.077000000    -5.714000000    -6.214000000
H    -1.218000000    -5.856000000    -5.815000000
H    -2.679000000    -5.653000000    -5.472000000
O    -1.909000000    -9.052000000    -3.556000000
H    -1.436000000    -9.185000000    -2.734000000
H    -2.549000000    -9.764000000    -3.581000000
O    -3.706000000    -6.462000000    -3.098000000
H    -3.188000000    -7.264000000    -3.030000000
H    -3.351000000    -5.889000000    -2.418000000
O     0.123000000    -9.363000000    -1.597000000
H     0.366000000    -8.483000000    -1.886000000
H     0.479000000    -9.431000000    -0.711000000
O    -7.456000000    -7.040000000     2.006000000
H    -6.520000000    -6.866000000     1.911000000
H    -7.502000000    -7.936000000     2.339000000
O     0.691000000    -6.611000000    -1.476000000
H     1.340000000    -5.927000000    -1.309000000
H    -0.153000000    -6.170000000    -1.379000000
O     0.280000000    -6.264000000    -4.520000000
H     1.217000000    -6.329000000    -4.333000000
H    -0.116000000    -6.027000000    -3.681000000
O    -4.779000000    -8.948000000    -0.608000000
H    -4.894000000    -8.420000000    -1.398000000
H    -4.507000000    -8.321000000     0.062000000
O    -1.260000000    -9.598000000     1.824000000
H    -0.479000000    -9.956000000     1.402000000
H    -1.494000000    -8.839000000     1.289000000
O    -4.568000000    -6.680000000     1.379000000
H    -4.205000000    -6.664000000     2.264000000
H    -4.077000000    -6.008000000     0.906000000
O     3.146000000    -5.036000000    -1.426000000
H     2.777000000    -4.238000000    -1.048000000
H     3.845000000    -5.287000000    -0.821000000
O     1.935000000    -8.603000000     0.425000000
H     2.831000000    -8.741000000     0.117000000
H     1.709000000    -7.725000000     0.118000000
O    -2.147000000    -6.118000000     3.260000000
H    -1.373000000    -6.286000000     3.799000000
H    -2.834000000    -6.655000000     3.654000000
O     1.278000000    -5.810000000     1.375000000
H     1.594000000    -4.913000000     1.270000000
H     0.341000000    -5.759000000     1.186000000
O    -0.307000000    -3.409000000     2.315000000
H    -0.702000000    -3.754000000     3.116000000
H    -0.954000000    -3.588000000     1.633000000
O    -5.643000000    -6.016000000    -4.857000000
H    -5.050000000    -6.600000000    -4.385000000
H    -5.653000000    -5.213000000    -4.335000000
O    -7.951000000    -5.144000000     0.073000000
H    -7.487000000    -4.317000000     0.203000000
H    -7.699000000    -5.680000000     0.825000000
O    -1.444000000    -7.047000000     0.904000000
H    -1.836000000    -6.652000000     1.683000000
H    -1.777000000    -6.522000000     0.176000000
O     2.054000000    -3.248000000     0.881000000
H     2.654000000    -2.828000000     1.498000000
H     1.184000000    -3.090000000     1.249000000
