201
-1244.75638
C    -3.472000000    -3.085000000    -2.267000000
H    -3.971000000    -2.402000000    -1.585000000
C    -2.549000000    -4.026000000    -1.713000000
C    -1.843000000    -4.800000000    -2.615000000
H    -1.105000000    -5.483000000    -2.204000000
C    -2.180000000    -3.920000000    -0.212000000
O    -3.314000000    -3.743000000     0.651000000
H    -1.577000000    -3.006000000    -0.105000000
O    -1.303000000    -4.999000000     0.269000000
C    -0.249000000    -4.658000000     1.176000000
C     1.017000000    -4.670000000     0.678000000
H     1.077000000    -4.829000000    -0.395000000
C     2.064000000    -4.249000000     1.450000000
O     3.226000000    -3.953000000     0.710000000
C     1.875000000    -3.824000000     2.774000000
C     2.982000000    -3.156000000     3.600000000
H     2.918000000    -3.398000000     4.663000000
C     3.037000000    -1.664000000     3.398000000
C     2.556000000    -0.772000000     4.334000000
H     2.169000000    -1.200000000     5.256000000
H     3.957000000    -3.575000000     3.340000000
C     0.605000000    -4.002000000     3.301000000
H     0.414000000    -3.714000000     4.332000000
C    -0.458000000    -4.413000000     2.547000000
C    -1.839000000    -4.423000000     3.225000000
H    -1.861000000    -4.665000000     4.289000000
H    -2.383000000    -5.226000000     2.724000000
C    -2.600000000    -3.084000000     2.972000000
C    -2.344000000    -2.006000000     3.812000000
H    -1.876000000    -2.089000000     4.790000000
C    -3.216000000    -2.873000000     1.697000000
C    -3.838000000    -1.620000000     1.472000000
H    -4.252000000    -1.305000000     0.518000000
C    -3.793000000    -0.620000000     2.447000000
O    -4.268000000     0.609000000     2.065000000
C    -3.355000000     1.576000000     1.610000000
C    -3.981000000     2.371000000     0.466000000
C    -3.174000000     3.298000000    -0.110000000
H    -2.246000000     3.536000000     0.404000000
C    -5.118000000     1.936000000    -0.171000000
H    -5.728000000     1.099000000     0.157000000
O    -3.058000000     2.416000000     2.727000000
H    -2.449000000     1.137000000     1.166000000
C    -2.949000000    -0.776000000     3.570000000
C    -2.907000000     0.350000000     4.654000000
H    -2.814000000    -0.119000000     5.635000000
H    -3.872000000     0.861000000     4.619000000
C    -1.792000000     1.312000000     4.342000000
C    -0.532000000     1.165000000     5.030000000
H    -0.416000000     0.351000000     5.742000000
C    -1.927000000     2.352000000     3.486000000
C    -0.891000000     3.167000000     3.194000000
H    -1.036000000     3.944000000     2.449000000
C     0.403000000     2.962000000     3.805000000
O     1.458000000     3.670000000     3.432000000
C     2.165000000     3.073000000     2.272000000
C     2.470000000     4.156000000     1.166000000
C     1.624000000     5.286000000     1.058000000
H     0.860000000     5.537000000     1.790000000
C     3.461000000     3.941000000     0.255000000
H     4.138000000     3.093000000     0.317000000
O     3.330000000     2.398000000     2.704000000
H     1.493000000     2.342000000     1.798000000
C     0.574000000     1.934000000     4.672000000
C     1.954000000     1.600000000     5.177000000
H     1.978000000     1.097000000     6.146000000
H     2.533000000     2.478000000     5.471000000
C     2.633000000     0.609000000     4.152000000
C     3.174000000     1.054000000     2.975000000
C     3.666000000     0.181000000     2.036000000
H     4.019000000     0.576000000     1.086000000
C     3.674000000    -1.186000000     2.265000000
O     4.263000000    -2.032000000     1.353000000
C     3.428000000    -2.575000000     0.379000000
H     2.420000000    -2.137000000     0.402000000
C     3.914000000    -2.254000000    -1.026000000
C     3.339000000    -2.950000000    -2.106000000
H     2.617000000    -3.745000000    -1.936000000
C     4.823000000    -1.206000000    -1.275000000
H     5.309000000    -0.647000000    -0.480000000
C     5.185000000    -0.903000000    -2.585000000
O     6.052000000     0.101000000    -2.907000000
C     4.616000000    -1.586000000    -3.667000000
H     4.888000000    -1.354000000    -4.694000000
C     3.710000000    -2.580000000    -3.425000000
O     3.175000000    -3.194000000    -4.535000000
C     2.412000000    -4.310000000    -4.537000000
C     0.975000000    -4.273000000    -4.746000000
H     0.399000000    -3.386000000    -4.997000000
C     3.030000000    -5.472000000    -4.058000000
H     4.105000000    -5.576000000    -3.929000000
C     2.231000000    -6.528000000    -3.721000000
H     2.690000000    -7.437000000    -3.342000000
C     0.840000000    -6.562000000    -4.058000000
H     0.295000000    -7.482000000    -3.859000000
C     0.248000000    -5.418000000    -4.565000000
O    -1.098000000    -5.396000000    -4.807000000
C    -1.913000000    -4.650000000    -3.987000000
C    -2.820000000    -3.763000000    -4.524000000
H    -2.850000000    -3.604000000    -5.599000000
C    -3.668000000    -3.008000000    -3.650000000
O    -4.330000000    -1.919000000    -4.182000000
C    -5.449000000    -1.453000000    -3.529000000
C    -5.367000000    -0.110000000    -3.118000000
H    -4.491000000     0.465000000    -3.409000000
C    -6.565000000    -2.229000000    -3.098000000
H    -6.707000000    -3.289000000    -3.294000000
C    -7.654000000    -1.578000000    -2.527000000
H    -8.559000000    -2.129000000    -2.284000000
C    -7.570000000    -0.198000000    -2.234000000
H    -8.481000000     0.268000000    -1.869000000
C    -6.397000000     0.486000000    -2.401000000
O    -6.396000000     1.846000000    -2.201000000
C    -5.408000000     2.438000000    -1.392000000
C    -4.690000000     3.494000000    -1.989000000
H    -5.038000000     4.044000000    -2.860000000
C    -3.573000000     3.946000000    -1.309000000
O    -2.685000000     4.845000000    -1.816000000
C    -2.259000000     5.938000000    -1.114000000
C    -0.853000000     6.076000000    -0.914000000
H    -0.200000000     5.247000000    -1.174000000
C    -3.102000000     6.981000000    -0.699000000
H    -4.170000000     6.790000000    -0.769000000
C    -2.607000000     8.213000000    -0.355000000
H    -3.307000000     9.008000000    -0.110000000
C    -1.207000000     8.304000000    -0.147000000
H    -0.807000000     9.200000000     0.321000000
C    -0.318000000     7.217000000    -0.410000000
O     1.034000000     7.320000000    -0.066000000
C     1.837000000     6.177000000     0.048000000
C     2.798000000     5.888000000    -0.944000000
H     3.035000000     6.581000000    -1.747000000
C     3.646000000     4.814000000    -0.747000000
O     4.579000000     4.646000000    -1.766000000
C     5.546000000     3.611000000    -1.880000000
C     6.842000000     3.922000000    -1.394000000
H     7.150000000     4.920000000    -1.094000000
C     7.818000000     2.911000000    -1.440000000
H     8.870000000     3.126000000    -1.267000000
C     7.501000000     1.645000000    -1.915000000
H     8.286000000     0.905000000    -2.049000000
C     6.230000000     1.330000000    -2.315000000
C     5.209000000     2.284000000    -2.204000000
H     4.181000000     2.023000000    -2.442000000
O     4.003000000     4.149000000    -8.267000000
H     3.615000000     3.280000000    -8.372000000
H     3.817000000     4.386000000    -7.359000000
O     0.198000000     3.923000000    -6.873000000
H     0.441000000     3.665000000    -5.984000000
H     0.591000000     4.788000000    -6.987000000
O     6.501000000     3.624000000    -8.242000000
H     5.759000000     4.228000000    -8.265000000
H     6.346000000     3.084000000    -7.467000000
O     2.120000000     2.128000000    -8.039000000
H     1.373000000     2.657000000    -7.760000000
H     2.235000000     1.487000000    -7.338000000
O     3.853000000    -1.302000000    -7.970000000
H     3.971000000    -0.601000000    -8.611000000
H     3.175000000    -0.974000000    -7.380000000
O    -0.895000000     0.531000000    -6.994000000
H    -0.502000000     0.790000000    -7.828000000
H    -1.031000000    -0.413000000    -7.078000000
O    -3.199000000     5.052000000    -4.578000000
H    -2.707000000     5.171000000    -3.765000000
H    -2.836000000     4.253000000    -4.962000000
O    -0.564000000     8.187000000    -3.271000000
H     0.049000000     7.505000000    -3.546000000
H    -0.765000000     7.975000000    -2.360000000
O    -2.123000000     2.458000000    -5.191000000
H    -1.561000000     2.223000000    -4.452000000
H    -1.787000000     1.939000000    -5.922000000
O     6.854000000     5.260000000    -4.138000000
H     6.985000000     5.856000000    -3.400000000
H     5.955000000     4.948000000    -4.036000000
O     1.314000000     6.159000000    -7.585000000
H     1.098000000     6.345000000    -8.498000000
H     2.079000000     6.705000000    -7.404000000
O     0.920000000     5.977000000    -3.872000000
H     0.786000000     5.031000000    -3.929000000
H     1.836000000     6.074000000    -3.613000000
O    -3.971000000     0.984000000    -6.449000000
H    -3.386000000     1.690000000    -6.175000000
H    -3.401000000     0.363000000    -6.903000000
O     1.377000000     3.450000000   -10.466000000
H     1.722000000     4.309000000   -10.223000000
H     1.363000000     2.956000000    -9.646000000
O    -2.320000000     3.844000000    -7.904000000
H    -2.958000000     4.447000000    -7.523000000
H    -1.522000000     3.985000000    -7.394000000
O     1.898000000     0.040000000    -6.223000000
H     1.132000000    -0.413000000    -5.871000000
H     2.117000000     0.693000000    -5.558000000
O     3.705000000     6.695000000    -4.686000000
H     4.028000000     7.486000000    -4.255000000
H     3.162000000     7.019000000    -5.406000000
O     3.942000000     3.947000000    -5.273000000
H     3.169000000     3.450000000    -5.004000000
H     3.765000000     4.841000000    -4.981000000
O     5.777000000     1.853000000    -6.040000000
H     5.340000000     1.022000000    -5.855000000
H     5.222000000     2.513000000    -5.624000000
