201
-1243.97215
C    -3.767000000    -3.420000000    -1.081000000
H    -4.239000000    -2.564000000    -0.605000000
C    -2.853000000    -4.268000000    -0.406000000
C    -2.172000000    -5.302000000    -1.110000000
H    -1.347000000    -5.781000000    -0.589000000
C    -2.315000000    -3.812000000     0.975000000
O    -3.362000000    -3.600000000     1.903000000
H    -1.792000000    -2.853000000     0.847000000
O    -1.398000000    -4.772000000     1.488000000
C    -0.303000000    -4.272000000     2.101000000
C     0.879000000    -4.245000000     1.346000000
H     0.977000000    -4.649000000     0.342000000
C     2.030000000    -3.622000000     1.883000000
O     3.095000000    -3.422000000     0.991000000
C     2.010000000    -3.057000000     3.103000000
C     3.374000000    -2.467000000     3.746000000
H     3.412000000    -2.496000000     4.837000000
C     3.431000000    -1.041000000     3.328000000
C     2.882000000     0.001000000     4.157000000
H     2.417000000    -0.227000000     5.112000000
H     4.237000000    -3.060000000     3.436000000
C     0.859000000    -3.074000000     3.817000000
H     0.869000000    -2.754000000     4.856000000
C    -0.300000000    -3.711000000     3.382000000
C    -1.598000000    -3.582000000     4.226000000
H    -1.290000000    -3.412000000     5.260000000
H    -2.138000000    -4.527000000     4.136000000
C    -2.470000000    -2.354000000     3.755000000
C    -2.296000000    -1.132000000     4.401000000
H    -1.615000000    -1.100000000     5.247000000
C    -3.262000000    -2.449000000     2.614000000
C    -3.993000000    -1.306000000     2.188000000
H    -4.642000000    -1.408000000     1.322000000
C    -3.743000000    -0.071000000     2.772000000
O    -4.325000000     1.066000000     2.151000000
C    -3.378000000     1.841000000     1.390000000
C    -3.940000000     2.363000000     0.128000000
C    -3.163000000     3.226000000    -0.637000000
H    -2.246000000     3.639000000    -0.224000000
C    -5.024000000     1.750000000    -0.542000000
H    -5.518000000     0.854000000    -0.174000000
O    -2.902000000     2.964000000     2.176000000
H    -2.557000000     1.158000000     1.126000000
C    -2.887000000     0.040000000     3.863000000
C    -2.644000000     1.340000000     4.543000000
H    -2.367000000     1.197000000     5.590000000
H    -3.608000000     1.847000000     4.457000000
C    -1.479000000     2.031000000     3.867000000
C    -0.171000000     1.868000000     4.367000000
H     0.011000000     1.107000000     5.121000000
C    -1.644000000     2.855000000     2.757000000
C    -0.609000000     3.616000000     2.245000000
H    -0.860000000     4.274000000     1.418000000
C     0.664000000     3.477000000     2.807000000
O     1.694000000     4.121000000     2.170000000
C     2.493000000     3.333000000     1.291000000
C     2.768000000     4.204000000     0.063000000
C     1.882000000     5.218000000    -0.357000000
H     0.966000000     5.459000000     0.177000000
C     3.866000000     3.815000000    -0.714000000
H     4.484000000     2.976000000    -0.406000000
O     3.639000000     2.903000000     1.987000000
H     1.938000000     2.452000000     0.935000000
C     0.905000000     2.575000000     3.785000000
C     2.231000000     2.375000000     4.472000000
H     2.079000000     2.122000000     5.524000000
H     2.858000000     3.265000000     4.388000000
C     2.945000000     1.329000000     3.666000000
C     3.678000000     1.638000000     2.491000000
C     4.276000000     0.630000000     1.731000000
H     4.609000000     0.721000000     0.700000000
C     4.100000000    -0.696000000     2.167000000
O     4.527000000    -1.609000000     1.250000000
C     3.423000000    -2.151000000     0.473000000
H     2.578000000    -1.476000000     0.674000000
C     3.709000000    -2.105000000    -1.050000000
C     2.824000000    -2.847000000    -1.943000000
H     2.106000000    -3.560000000    -1.546000000
C     4.705000000    -1.333000000    -1.687000000
H     5.369000000    -0.723000000    -1.079000000
C     4.753000000    -1.206000000    -3.050000000
O     5.703000000    -0.441000000    -3.700000000
C     3.904000000    -1.922000000    -3.881000000
H     3.931000000    -1.823000000    -4.963000000
C     2.963000000    -2.734000000    -3.292000000
O     2.044000000    -3.456000000    -4.053000000
C     1.536000000    -4.724000000    -3.687000000
C     0.142000000    -4.905000000    -3.449000000
H    -0.530000000    -4.080000000    -3.674000000
C     2.383000000    -5.869000000    -3.535000000
H     3.450000000    -5.785000000    -3.721000000
C     1.885000000    -7.134000000    -3.353000000
H     2.541000000    -7.996000000    -3.264000000
C     0.472000000    -7.243000000    -3.226000000
H     0.100000000    -8.257000000    -3.101000000
C    -0.403000000    -6.176000000    -3.284000000
O    -1.770000000    -6.377000000    -3.211000000
C    -2.470000000    -5.504000000    -2.457000000
C    -3.460000000    -4.708000000    -3.059000000
H    -3.749000000    -4.886000000    -4.092000000
C    -4.025000000    -3.613000000    -2.459000000
O    -4.825000000    -2.794000000    -3.236000000
C    -5.778000000    -1.995000000    -2.685000000
C    -5.702000000    -0.617000000    -2.862000000
H    -4.845000000    -0.210000000    -3.392000000
C    -6.809000000    -2.548000000    -1.881000000
H    -6.772000000    -3.630000000    -1.778000000
C    -7.725000000    -1.737000000    -1.266000000
H    -8.430000000    -2.039000000    -0.496000000
C    -7.686000000    -0.392000000    -1.565000000
H    -8.441000000     0.237000000    -1.101000000
C    -6.703000000     0.196000000    -2.295000000
O    -6.537000000     1.589000000    -2.423000000
C    -5.387000000     2.054000000    -1.837000000
C    -4.696000000     3.030000000    -2.461000000
H    -5.075000000     3.394000000    -3.413000000
C    -3.620000000     3.683000000    -1.913000000
O    -2.932000000     4.695000000    -2.611000000
C    -2.192000000     5.665000000    -1.989000000
C    -0.829000000     5.798000000    -2.222000000
H    -0.284000000     5.070000000    -2.818000000
C    -2.830000000     6.641000000    -1.131000000
H    -3.915000000     6.595000000    -1.087000000
C    -2.120000000     7.738000000    -0.559000000
H    -2.603000000     8.377000000     0.176000000
C    -0.753000000     7.729000000    -0.776000000
H    -0.208000000     8.416000000    -0.133000000
C    -0.090000000     6.869000000    -1.632000000
O     1.273000000     6.973000000    -1.822000000
C     2.117000000     5.904000000    -1.501000000
C     3.244000000     5.576000000    -2.203000000
H     3.428000000     6.181000000    -3.087000000
C     4.063000000     4.447000000    -1.939000000
O     5.023000000     4.066000000    -2.815000000
C     5.753000000     2.965000000    -2.618000000
C     6.991000000     3.043000000    -1.985000000
H     7.399000000     3.942000000    -1.530000000
C     7.776000000     1.888000000    -1.843000000
H     8.614000000     1.848000000    -1.152000000
C     7.381000000     0.736000000    -2.525000000
H     7.925000000    -0.188000000    -2.340000000
C     6.117000000     0.648000000    -3.157000000
C     5.305000000     1.811000000    -3.177000000
H     4.372000000     1.803000000    -3.735000000
O    -2.106000000    -1.594000000    -9.953000000
H    -1.725000000    -0.993000000    -9.313000000
H    -1.386000000    -2.175000000   -10.196000000
O     2.507000000    -0.818000000    -6.547000000
H     1.719000000    -0.918000000    -6.012000000
H     2.581000000    -1.645000000    -7.022000000
O    -4.128000000     0.999000000    -8.342000000
H    -3.664000000     1.168000000    -9.161000000
H    -3.540000000     1.325000000    -7.660000000
O     2.331000000     6.456000000    -5.820000000
H     3.138000000     5.959000000    -5.959000000
H     1.639000000     5.794000000    -5.819000000
O     1.754000000     0.456000000    -8.894000000
H     2.139000000    -0.013000000    -8.154000000
H     2.497000000     0.889000000    -9.315000000
O    -2.393000000     2.318000000    -6.505000000
H    -1.769000000     2.030000000    -5.839000000
H    -2.561000000     3.236000000    -6.295000000
O    -2.747000000    -4.163000000    -6.417000000
H    -2.104000000    -3.454000000    -6.442000000
H    -3.592000000    -3.724000000    -6.516000000
O     2.291000000    -3.606000000    -7.165000000
H     2.417000000    -4.553000000    -7.103000000
H     1.356000000    -3.478000000    -7.010000000
O    -0.649000000    -0.463000000    -7.843000000
H     0.157000000    -0.189000000    -8.279000000
H    -0.660000000     0.036000000    -7.026000000
O    -0.666000000     2.358000000    -8.677000000
H     0.058000000     1.809000000    -8.374000000
H    -1.222000000     2.468000000    -7.906000000
O    -5.130000000    -2.639000000    -6.077000000
H    -5.232000000    -2.766000000    -5.134000000
H    -5.351000000    -1.718000000    -6.220000000
O     0.855000000     3.885000000    -5.241000000
H     0.309000000     3.112000000    -5.102000000
H     1.036000000     3.884000000    -6.181000000
O    -0.310000000    -2.956000000    -6.778000000
H    -0.467000000    -2.196000000    -7.338000000
H    -0.222000000    -2.591000000    -5.898000000
O     5.210000000     2.610000000    -8.184000000
H     4.442000000     2.541000000    -7.616000000
H     5.835000000     1.984000000    -7.819000000
O     4.595000000     4.514000000    -6.203000000
H     4.328000000     3.630000000    -5.952000000
H     5.199000000     4.787000000    -5.513000000
O    -3.478000000     5.302000000    -5.538000000
H    -3.433000000     4.847000000    -4.697000000
H    -4.326000000     5.746000000    -5.525000000
O     3.223000000     1.788000000    -6.157000000
H     3.133000000     0.836000000    -6.178000000
H     2.560000000     2.079000000    -5.531000000
O     0.918000000    -0.240000000   -11.220000000
H     1.734000000    -0.355000000   -11.707000000
H     1.192000000     0.114000000   -10.374000000
O     5.566000000    -1.521000000    -6.837000000
H     5.674000000    -0.572000000    -6.901000000
H     6.340000000    -1.880000000    -7.270000000
