201
-1261.20901
C    -3.166000000    -3.024000000    -1.768000000
H    -3.541000000    -2.185000000    -1.187000000
C    -2.261000000    -3.904000000    -1.242000000
C    -1.661000000    -4.931000000    -2.010000000
H    -0.905000000    -5.560000000    -1.548000000
C    -1.949000000    -3.714000000     0.253000000
O    -3.175000000    -3.537000000     1.050000000
H    -1.262000000    -2.858000000     0.186000000
O    -1.230000000    -4.781000000     0.808000000
C    -0.015000000    -4.410000000     1.389000000
C     1.103000000    -4.264000000     0.594000000
H     1.012000000    -4.315000000    -0.488000000
C     2.285000000    -3.852000000     1.140000000
O     3.352000000    -3.630000000     0.337000000
C     2.342000000    -3.476000000     2.477000000
C     3.674000000    -2.975000000     3.067000000
H     3.710000000    -3.232000000     4.128000000
C     3.730000000    -1.430000000     2.950000000
C     3.121000000    -0.602000000     3.899000000
H     2.687000000    -1.082000000     4.772000000
H     4.594000000    -3.392000000     2.652000000
C     1.161000000    -3.542000000     3.277000000
H     1.208000000    -3.265000000     4.328000000
C     0.009000000    -4.071000000     2.720000000
C    -1.347000000    -4.097000000     3.416000000
H    -1.173000000    -4.212000000     4.488000000
H    -1.934000000    -4.988000000     3.183000000
C    -2.218000000    -2.854000000     3.291000000
C    -2.080000000    -1.823000000     4.251000000
H    -1.576000000    -1.948000000     5.206000000
C    -3.071000000    -2.654000000     2.182000000
C    -3.732000000    -1.460000000     2.040000000
H    -4.366000000    -1.384000000     1.160000000
C    -3.589000000    -0.447000000     2.940000000
O    -4.224000000     0.707000000     2.566000000
C    -3.421000000     1.869000000     2.087000000
C    -4.239000000     2.621000000     1.083000000
C    -4.125000000     3.989000000     0.908000000
H    -3.456000000     4.583000000     1.526000000
C    -4.937000000     1.829000000     0.061000000
H    -4.898000000     0.757000000     0.237000000
O    -3.086000000     2.665000000     3.339000000
H    -2.569000000     1.440000000     1.539000000
C    -2.869000000    -0.616000000     4.097000000
C    -2.609000000     0.523000000     5.000000000
H    -2.227000000     0.120000000     5.940000000
H    -3.469000000     1.084000000     5.373000000
C    -1.521000000     1.415000000     4.554000000
C    -0.140000000     1.207000000     4.906000000
H     0.216000000     0.386000000     5.522000000
C    -1.807000000     2.519000000     3.767000000
C    -0.818000000     3.329000000     3.243000000
H    -0.949000000     4.150000000     2.543000000
C     0.457000000     3.044000000     3.520000000
O     1.313000000     3.837000000     2.821000000
C     2.075000000     3.139000000     1.765000000
C     2.227000000     4.066000000     0.594000000
C     1.101000000     4.667000000     0.044000000
H     0.232000000     4.771000000     0.688000000
C     3.421000000     4.096000000    -0.122000000
H     4.270000000     3.554000000     0.286000000
O     3.275000000     2.637000000     2.315000000
H     1.488000000     2.274000000     1.423000000
C     0.848000000     1.972000000     4.372000000
C     2.296000000     1.628000000     4.751000000
H     2.304000000     1.071000000     5.690000000
H     2.750000000     2.571000000     5.061000000
C     2.982000000     0.756000000     3.669000000
C     3.480000000     1.336000000     2.481000000
C     4.122000000     0.527000000     1.549000000
H     4.447000000     0.958000000     0.606000000
C     4.196000000    -0.826000000     1.779000000
O     4.583000000    -1.612000000     0.761000000
C     3.563000000    -2.256000000    -0.086000000
H     2.689000000    -1.615000000     0.099000000
C     3.847000000    -2.145000000    -1.624000000
C     3.274000000    -3.006000000    -2.541000000
H     2.598000000    -3.750000000    -2.128000000
C     4.518000000    -0.981000000    -2.049000000
H     4.897000000    -0.300000000    -1.292000000
C     4.720000000    -0.831000000    -3.398000000
O     5.430000000     0.262000000    -3.840000000
C     4.213000000    -1.680000000    -4.382000000
H     4.315000000    -1.509000000    -5.451000000
C     3.438000000    -2.768000000    -3.937000000
O     2.698000000    -3.483000000    -4.887000000
C     2.046000000    -4.720000000    -4.662000000
C     0.726000000    -4.687000000    -4.227000000
H     0.258000000    -3.707000000    -4.189000000
C     2.730000000    -5.867000000    -4.938000000
H     3.757000000    -5.854000000    -5.293000000
C     2.071000000    -7.059000000    -4.808000000
H     2.566000000    -7.974000000    -5.123000000
C     0.722000000    -7.088000000    -4.547000000
H     0.135000000    -7.999000000    -4.623000000
C     0.052000000    -5.892000000    -4.269000000
O    -1.305000000    -5.838000000    -4.149000000
C    -2.027000000    -5.046000000    -3.377000000
C    -3.048000000    -4.219000000    -3.846000000
H    -3.601000000    -4.434000000    -4.756000000
C    -3.542000000    -3.135000000    -3.103000000
O    -4.518000000    -2.335000000    -3.645000000
C    -5.470000000    -1.711000000    -2.831000000
C    -5.646000000    -0.343000000    -2.957000000
H    -4.951000000     0.144000000    -3.637000000
C    -6.162000000    -2.432000000    -1.870000000
H    -5.948000000    -3.495000000    -1.799000000
C    -7.079000000    -1.769000000    -1.061000000
H    -7.647000000    -2.386000000    -0.370000000
C    -7.161000000    -0.388000000    -1.081000000
H    -7.848000000     0.101000000    -0.395000000
C    -6.353000000     0.374000000    -1.961000000
O    -6.339000000     1.809000000    -2.015000000
C    -5.628000000     2.465000000    -0.959000000
C    -5.470000000     3.838000000    -1.134000000
H    -5.854000000     4.283000000    -2.049000000
C    -4.719000000     4.527000000    -0.201000000
O    -4.567000000     5.872000000    -0.465000000
C    -3.340000000     6.453000000    -0.491000000
C    -2.296000000     5.818000000    -1.188000000
H    -2.416000000     4.904000000    -1.764000000
C    -3.104000000     7.558000000     0.304000000
H    -3.919000000     8.008000000     0.864000000
C    -1.825000000     8.135000000     0.379000000
H    -1.728000000     9.062000000     0.939000000
C    -0.810000000     7.537000000    -0.355000000
H     0.118000000     8.074000000    -0.537000000
C    -0.994000000     6.370000000    -1.106000000
O     0.072000000     5.832000000    -1.838000000
C     1.146000000     5.303000000    -1.203000000
C     2.391000000     5.238000000    -1.883000000
H     2.339000000     5.805000000    -2.809000000
C     3.506000000     4.662000000    -1.384000000
O     4.665000000     4.583000000    -2.133000000
C     5.492000000     3.541000000    -2.156000000
C     6.722000000     3.588000000    -1.609000000
H     6.957000000     4.340000000    -0.860000000
C     7.603000000     2.497000000    -1.714000000
H     8.550000000     2.503000000    -1.180000000
C     7.190000000     1.373000000    -2.535000000
H     7.828000000     0.499000000    -2.633000000
C     5.857000000     1.318000000    -3.074000000
C     5.039000000     2.441000000    -2.948000000
H     4.089000000     2.448000000    -3.475000000
O    -1.686000000    -0.964000000    -6.659000000
H    -2.077000000    -1.549000000    -7.307000000
H    -0.899000000    -1.424000000    -6.366000000
O     5.348000000     4.675000000    -6.119000000
H     5.203000000     5.254000000    -5.371000000
H     5.058000000     3.815000000    -5.814000000
O    -2.674000000     4.812000000    -4.471000000
H    -1.972000000     4.194000000    -4.265000000
H    -2.219000000     5.607000000    -4.748000000
O     3.260000000     5.104000000    -7.842000000
H     2.817000000     4.995000000    -7.001000000
H     4.186000000     4.963000000    -7.645000000
O     2.096000000     4.667000000    -5.597000000
H     1.773000000     3.943000000    -5.060000000
H     1.760000000     5.453000000    -5.167000000
O     1.133000000     3.035000000    -8.189000000
H     1.825000000     3.674000000    -8.021000000
H     0.338000000     3.448000000    -7.851000000
O    -1.728000000     7.113000000    -5.443000000
H    -1.414000000     7.230000000    -6.339000000
H    -1.847000000     8.004000000    -5.114000000
O    -1.146000000     3.702000000    -6.739000000
H    -1.757000000     4.351000000    -6.390000000
H    -0.825000000     3.236000000    -5.967000000
O    -4.852000000     3.286000000    -4.983000000
H    -4.103000000     3.782000000    -4.653000000
H    -4.648000000     2.375000000    -4.773000000
O     0.665000000    -1.634000000    -2.368000000
H     1.373000000    -1.088000000    -2.710000000
H    -0.076000000    -1.035000000    -2.276000000
O    -3.062000000     1.019000000    -5.013000000
H    -2.412000000     1.569000000    -4.576000000
H    -2.548000000     0.331000000    -5.435000000
O     4.753000000     1.886000000    -6.477000000
H     3.888000000     1.539000000    -6.259000000
H     5.299000000     1.109000000    -6.599000000
O     1.864000000     1.205000000    -6.102000000
H     1.659000000     1.752000000    -6.860000000
H     1.699000000     1.769000000    -5.347000000
O    -5.220000000    -0.060000000    -6.678000000
H    -4.631000000     0.343000000    -6.041000000
H    -5.199000000    -0.993000000    -6.466000000
O     3.174000000    -0.204000000    -8.749000000
H     2.316000000    -0.274000000    -8.329000000
H     2.977000000    -0.014000000    -9.666000000
O     1.019000000     6.995000000    -4.329000000
H     0.848000000     7.473000000    -5.141000000
H     0.150000000     6.813000000    -3.972000000
O    -2.150000000     1.395000000    -9.027000000
H    -1.927000000     2.190000000    -8.542000000
H    -1.658000000     0.701000000    -8.589000000
O     0.982000000     1.257000000   -10.212000000
H     0.962000000     2.000000000   -10.816000000
H     1.056000000     1.656000000    -9.345000000
O     1.098000000    -1.301000000    -6.250000000
H     1.162000000    -0.347000000    -6.222000000
H     1.830000000    -1.606000000    -5.714000000
