201
-1257.25359
C    -4.827000000    -2.337000000    -0.814000000
H    -5.082000000    -1.767000000     0.076000000
C    -3.701000000    -3.148000000    -0.829000000
C    -3.429000000    -3.845000000    -1.988000000
H    -2.515000000    -4.434000000    -1.993000000
C    -2.728000000    -3.188000000     0.378000000
O    -3.520000000    -2.973000000     1.551000000
H    -2.027000000    -2.342000000     0.330000000
O    -2.096000000    -4.460000000     0.517000000
C    -0.853000000    -4.508000000     0.880000000
C     0.088000000    -4.644000000    -0.116000000
H    -0.202000000    -4.825000000    -1.147000000
C     1.423000000    -4.517000000     0.225000000
O     2.301000000    -4.319000000    -0.801000000
C     1.778000000    -4.238000000     1.545000000
C     3.274000000    -4.062000000     1.930000000
H     3.435000000    -4.474000000     2.928000000
C     3.725000000    -2.619000000     1.868000000
C     3.648000000    -1.788000000     2.984000000
H     3.559000000    -2.277000000     3.951000000
H     3.906000000    -4.660000000     1.269000000
C     0.803000000    -4.157000000     2.559000000
H     1.100000000    -4.113000000     3.604000000
C    -0.535000000    -4.266000000     2.208000000
C    -1.647000000    -4.150000000     3.195000000
H    -1.388000000    -4.498000000     4.197000000
H    -2.434000000    -4.842000000     2.889000000
C    -2.023000000    -2.656000000     3.310000000
C    -1.313000000    -1.840000000     4.155000000
H    -0.462000000    -2.237000000     4.703000000
C    -2.936000000    -2.093000000     2.438000000
C    -3.288000000    -0.786000000     2.504000000
H    -4.005000000    -0.398000000     1.784000000
C    -2.706000000     0.014000000     3.508000000
O    -3.122000000     1.361000000     3.587000000
C    -2.118000000     2.266000000     2.999000000
C    -2.890000000     3.250000000     2.110000000
C    -2.445000000     4.544000000     1.925000000
H    -1.548000000     4.981000000     2.357000000
C    -3.952000000     2.708000000     1.386000000
H    -4.240000000     1.667000000     1.505000000
O    -1.379000000     2.976000000     4.033000000
H    -1.454000000     1.717000000     2.315000000
C    -1.720000000    -0.487000000     4.352000000
C    -1.052000000     0.387000000     5.363000000
H    -0.638000000    -0.189000000     6.193000000
H    -1.739000000     1.143000000     5.750000000
C     0.082000000     1.138000000     4.705000000
C     1.378000000     0.595000000     4.659000000
H     1.497000000    -0.394000000     5.092000000
C    -0.124000000     2.472000000     4.203000000
C     0.861000000     3.030000000     3.469000000
H     0.659000000     3.889000000     2.834000000
C     2.104000000     2.384000000     3.382000000
O     3.038000000     2.945000000     2.529000000
C     3.245000000     2.247000000     1.328000000
C     3.164000000     3.252000000     0.161000000
C     2.355000000     4.383000000     0.095000000
H     1.819000000     4.705000000     0.984000000
C     3.867000000     2.867000000    -0.929000000
H     4.454000000     1.956000000    -1.016000000
O     4.497000000     1.465000000     1.395000000
H     2.412000000     1.545000000     1.178000000
C     2.459000000     1.221000000     4.089000000
C     3.763000000     0.550000000     4.051000000
H     3.884000000    -0.053000000     4.954000000
H     4.476000000     1.376000000     4.095000000
C     3.907000000    -0.383000000     2.851000000
C     4.281000000     0.114000000     1.641000000
C     4.501000000    -0.730000000     0.554000000
H     4.696000000    -0.327000000    -0.436000000
C     4.215000000    -2.025000000     0.673000000
O     4.174000000    -2.783000000    -0.426000000
C     2.865000000    -3.018000000    -0.999000000
H     2.084000000    -2.360000000    -0.590000000
C     2.890000000    -2.832000000    -2.512000000
C     1.809000000    -3.212000000    -3.341000000
H     0.953000000    -3.714000000    -2.898000000
C     4.012000000    -2.191000000    -3.152000000
H     4.936000000    -1.927000000    -2.645000000
C     3.954000000    -1.809000000    -4.469000000
O     5.111000000    -1.166000000    -4.989000000
C     2.811000000    -2.034000000    -5.261000000
H     2.717000000    -1.761000000    -6.309000000
C     1.764000000    -2.773000000    -4.653000000
O     0.678000000    -3.088000000    -5.424000000
C    -0.247000000    -4.060000000    -5.174000000
C    -1.621000000    -3.784000000    -4.911000000
H    -2.021000000    -2.777000000    -4.818000000
C     0.076000000    -5.423000000    -5.301000000
H     1.001000000    -5.838000000    -5.694000000
C    -0.880000000    -6.395000000    -5.083000000
H    -0.527000000    -7.383000000    -5.367000000
C    -2.108000000    -6.152000000    -4.623000000
H    -2.801000000    -6.962000000    -4.409000000
C    -2.511000000    -4.778000000    -4.559000000
O    -3.804000000    -4.475000000    -4.269000000
C    -4.183000000    -3.758000000    -3.118000000
C    -5.306000000    -2.872000000    -3.115000000
H    -5.862000000    -2.879000000    -4.049000000
C    -5.627000000    -2.163000000    -1.978000000
O    -6.624000000    -1.194000000    -1.981000000
C    -6.875000000    -0.300000000    -1.054000000
C    -6.237000000     0.958000000    -1.140000000
H    -5.635000000     1.237000000    -2.002000000
C    -7.813000000    -0.529000000    -0.036000000
H    -8.310000000    -1.496000000    -0.037000000
C    -7.879000000     0.347000000     1.022000000
H    -8.502000000     0.076000000     1.871000000
C    -7.198000000     1.602000000     0.952000000
H    -7.249000000     2.350000000     1.739000000
C    -6.342000000     1.869000000    -0.101000000
O    -5.705000000     3.096000000    -0.222000000
C    -4.714000000     3.555000000     0.544000000
C    -4.377000000     4.920000000     0.415000000
H    -5.025000000     5.616000000    -0.112000000
C    -3.217000000     5.363000000     1.054000000
O    -2.770000000     6.690000000     0.735000000
C    -1.396000000     7.036000000     0.698000000
C    -0.446000000     6.541000000    -0.221000000
H    -0.778000000     5.862000000    -1.002000000
C    -0.913000000     7.971000000     1.636000000
H    -1.614000000     8.359000000     2.370000000
C     0.429000000     8.355000000     1.630000000
H     0.739000000     9.239000000     2.182000000
C     1.343000000     7.736000000     0.734000000
H     2.374000000     8.031000000     0.554000000
C     0.863000000     6.881000000    -0.232000000
O     1.793000000     6.402000000    -1.092000000
C     2.291000000     5.156000000    -1.072000000
C     3.032000000     4.806000000    -2.182000000
H     3.161000000     5.447000000    -3.050000000
C     3.769000000     3.614000000    -2.146000000
O     4.415000000     3.336000000    -3.289000000
C     5.164000000     2.278000000    -3.613000000
C     6.514000000     2.376000000    -3.164000000
H     6.748000000     3.300000000    -2.641000000
C     7.356000000     1.326000000    -3.329000000
H     8.412000000     1.351000000    -3.073000000
C     6.862000000     0.146000000    -3.910000000
H     7.474000000    -0.721000000    -4.144000000
C     5.599000000     0.009000000    -4.446000000
C     4.712000000     1.153000000    -4.278000000
H     3.671000000     1.185000000    -4.590000000
O    -0.214000000    -3.666000000    -9.042000000
H    -0.961000000    -4.239000000    -9.211000000
H    -0.579000000    -2.939000000    -8.537000000
O    -2.931000000     2.810000000    -2.804000000
H    -2.463000000     2.370000000    -2.094000000
H    -3.250000000     2.098000000    -3.359000000
O    -3.933000000    -3.229000000    -9.169000000
H    -4.586000000    -2.895000000    -9.784000000
H    -3.771000000    -4.128000000    -9.455000000
O    -1.920000000     4.541000000    -5.260000000
H    -2.031000000     3.774000000    -4.697000000
H    -2.351000000     5.251000000    -4.785000000
O    -3.107000000    -0.511000000   -10.821000000
H    -2.926000000    -0.442000000    -9.884000000
H    -3.492000000     0.334000000   -11.053000000
O    -4.012000000     1.735000000    -5.251000000
H    -4.747000000     1.134000000    -5.374000000
H    -3.378000000     1.479000000    -5.921000000
O     0.186000000     2.001000000    -9.953000000
H    -0.615000000     1.858000000    -9.449000000
H     0.892000000     1.895000000    -9.316000000
O    -4.366000000    -3.118000000    -6.541000000
H    -4.115000000    -3.179000000    -7.462000000
H    -4.323000000    -4.019000000    -6.221000000
O    -1.896000000    -1.600000000    -8.466000000
H    -1.995000000    -0.992000000    -7.734000000
H    -2.739000000    -2.051000000    -8.518000000
O     4.232000000     1.779000000    -8.134000000
H     3.656000000     1.182000000    -7.656000000
H     4.068000000     2.636000000    -7.742000000
O     3.248000000     3.657000000    -6.191000000
H     2.324000000     3.480000000    -6.015000000
H     3.641000000     3.762000000    -5.324000000
O     0.448000000     3.214000000    -5.657000000
H    -0.298000000     3.811000000    -5.602000000
H     0.080000000     2.404000000    -6.010000000
O     2.714000000    -3.105000000    -9.227000000
H     1.830000000    -3.470000000    -9.279000000
H     2.589000000    -2.228000000    -8.864000000
O    -5.931000000    -0.233000000    -6.197000000
H    -5.541000000    -1.107000000    -6.230000000
H    -6.862000000    -0.392000000    -6.043000000
O    -2.868000000     4.404000000    -8.065000000
H    -2.501000000     3.533000000    -8.224000000
H    -2.902000000     4.478000000    -7.112000000
O    -4.790000000     1.117000000    -8.569000000
H    -4.878000000     0.376000000    -7.970000000
H    -5.661000000     1.514000000    -8.589000000
O     1.706000000    -0.626000000    -8.459000000
H     1.019000000    -0.584000000    -9.124000000
H     1.243000000    -0.523000000    -7.628000000
O    -2.204000000     1.812000000    -8.630000000
H    -2.047000000     1.215000000    -7.898000000
H    -3.119000000     1.663000000    -8.868000000
O    -0.430000000    -1.288000000   -10.580000000
H    -0.955000000    -1.678000000    -9.881000000
H    -1.028000000    -0.684000000   -11.020000000
