201
-1242.59963
C    -5.236000000    -1.811000000    -0.442000000
H    -5.580000000    -1.414000000     0.510000000
C    -4.073000000    -2.553000000    -0.483000000
C    -3.627000000    -3.082000000    -1.685000000
H    -2.803000000    -3.790000000    -1.639000000
C    -3.205000000    -2.749000000     0.766000000
O    -3.983000000    -2.417000000     1.930000000
H    -2.442000000    -1.982000000     0.565000000
O    -2.735000000    -4.088000000     0.802000000
C    -1.431000000    -4.312000000     1.180000000
C    -0.541000000    -4.455000000     0.109000000
H    -0.908000000    -4.568000000    -0.908000000
C     0.818000000    -4.436000000     0.301000000
O     1.640000000    -4.494000000    -0.782000000
C     1.300000000    -4.310000000     1.653000000
C     2.764000000    -4.284000000     2.040000000
H     2.796000000    -4.586000000     3.089000000
C     3.322000000    -2.928000000     1.798000000
C     3.503000000    -2.087000000     2.965000000
H     3.123000000    -2.399000000     3.935000000
H     3.271000000    -4.997000000     1.386000000
C     0.361000000    -4.081000000     2.720000000
H     0.774000000    -3.986000000     3.721000000
C    -0.993000000    -4.054000000     2.427000000
C    -2.040000000    -3.838000000     3.521000000
H    -1.699000000    -4.206000000     4.491000000
H    -2.952000000    -4.407000000     3.326000000
C    -2.327000000    -2.359000000     3.639000000
C    -1.610000000    -1.587000000     4.507000000
H    -0.752000000    -1.980000000     5.045000000
C    -3.334000000    -1.718000000     2.906000000
C    -3.609000000    -0.389000000     2.973000000
H    -4.292000000     0.109000000     2.290000000
C    -2.822000000     0.401000000     3.828000000
O    -2.914000000     1.800000000     3.719000000
C    -1.891000000     2.507000000     3.000000000
C    -2.592000000     3.460000000     2.046000000
C    -1.962000000     4.715000000     1.847000000
H    -1.212000000     5.100000000     2.533000000
C    -3.669000000     3.158000000     1.215000000
H    -4.139000000     2.181000000     1.299000000
O    -0.948000000     3.128000000     3.894000000
H    -1.338000000     1.738000000     2.441000000
C    -1.843000000    -0.176000000     4.605000000
C    -0.827000000     0.575000000     5.509000000
H    -0.457000000    -0.117000000     6.268000000
H    -1.360000000     1.336000000     6.082000000
C     0.359000000     1.281000000     4.817000000
C     1.535000000     0.557000000     4.742000000
H     1.549000000    -0.362000000     5.324000000
C     0.236000000     2.487000000     4.021000000
C     1.319000000     2.925000000     3.291000000
H     1.233000000     3.721000000     2.556000000
C     2.532000000     2.223000000     3.343000000
O     3.643000000     2.613000000     2.551000000
C     3.562000000     1.985000000     1.274000000
C     3.846000000     2.848000000     0.069000000
C     2.964000000     3.871000000    -0.222000000
H     2.169000000     4.076000000     0.491000000
C     4.671000000     2.394000000    -0.959000000
H     5.312000000     1.527000000    -0.818000000
O     4.560000000     1.019000000     1.373000000
H     2.543000000     1.598000000     1.123000000
C     2.684000000     1.086000000     4.109000000
C     3.898000000     0.218000000     4.033000000
H     3.980000000    -0.403000000     4.928000000
H     4.839000000     0.762000000     3.937000000
C     3.867000000    -0.746000000     2.829000000
C     4.185000000    -0.265000000     1.527000000
C     3.985000000    -1.138000000     0.376000000
H     4.196000000    -0.840000000    -0.648000000
C     3.699000000    -2.491000000     0.501000000
O     3.529000000    -3.299000000    -0.602000000
C     2.270000000    -3.252000000    -1.174000000
H     1.679000000    -2.448000000    -0.712000000
C     2.294000000    -3.022000000    -2.697000000
C     1.371000000    -3.622000000    -3.512000000
H     0.561000000    -4.217000000    -3.099000000
C     3.292000000    -2.295000000    -3.345000000
H     4.097000000    -1.827000000    -2.783000000
C     3.289000000    -2.046000000    -4.723000000
O     4.313000000    -1.294000000    -5.283000000
C     2.332000000    -2.549000000    -5.558000000
H     2.399000000    -2.525000000    -6.643000000
C     1.419000000    -3.418000000    -4.924000000
O     0.559000000    -4.130000000    -5.726000000
C    -0.636000000    -4.603000000    -5.211000000
C    -1.675000000    -3.698000000    -5.039000000
H    -1.661000000    -2.716000000    -5.505000000
C    -0.650000000    -5.879000000    -4.721000000
H     0.203000000    -6.535000000    -4.879000000
C    -1.772000000    -6.295000000    -4.039000000
H    -1.902000000    -7.299000000    -3.643000000
C    -2.819000000    -5.368000000    -3.776000000
H    -3.607000000    -5.628000000    -3.073000000
C    -2.809000000    -4.122000000    -4.338000000
O    -3.760000000    -3.190000000    -4.138000000
C    -4.264000000    -2.793000000    -2.916000000
C    -5.375000000    -1.977000000    -2.901000000
H    -5.969000000    -1.871000000    -3.806000000
C    -5.957000000    -1.540000000    -1.664000000
O    -7.023000000    -0.687000000    -1.651000000
C    -6.999000000     0.385000000    -0.773000000
C    -6.158000000     1.522000000    -1.033000000
H    -5.498000000     1.500000000    -1.896000000
C    -7.845000000     0.340000000     0.362000000
H    -8.415000000    -0.560000000     0.579000000
C    -7.815000000     1.416000000     1.276000000
H    -8.423000000     1.362000000     2.176000000
C    -7.005000000     2.546000000     0.920000000
H    -7.019000000     3.418000000     1.568000000
C    -6.156000000     2.625000000    -0.167000000
O    -5.373000000     3.723000000    -0.456000000
C    -4.333000000     4.079000000     0.361000000
C    -3.697000000     5.327000000     0.256000000
H    -4.206000000     6.054000000    -0.371000000
C    -2.499000000     5.644000000     0.957000000
O    -1.868000000     6.925000000     0.855000000
C    -0.517000000     7.008000000     0.573000000
C     0.125000000     6.185000000    -0.391000000
H    -0.478000000     5.481000000    -0.958000000
C     0.282000000     8.025000000     1.200000000
H    -0.313000000     8.701000000     1.808000000
C     1.552000000     8.254000000     0.728000000
H     2.072000000     9.156000000     1.041000000
C     2.120000000     7.415000000    -0.207000000
H     3.053000000     7.685000000    -0.695000000
C     1.423000000     6.332000000    -0.666000000
O     2.077000000     5.602000000    -1.661000000
C     2.966000000     4.594000000    -1.399000000
C     3.849000000     4.201000000    -2.346000000
H     3.969000000     4.775000000    -3.261000000
C     4.685000000     3.091000000    -2.133000000
O     5.594000000     2.724000000    -3.151000000
C     5.806000000     1.478000000    -3.619000000
C     7.161000000     1.107000000    -3.767000000
H     7.940000000     1.825000000    -3.522000000
C     7.556000000    -0.108000000    -4.300000000
H     8.588000000    -0.447000000    -4.355000000
C     6.586000000    -0.885000000    -4.853000000
H     6.845000000    -1.855000000    -5.268000000
C     5.237000000    -0.546000000    -4.683000000
C     4.811000000     0.645000000    -4.111000000
H     3.745000000     0.852000000    -4.052000000
O    -3.609000000    -3.677000000    -7.893000000
H    -3.221000000    -3.814000000    -8.758000000
H    -2.897000000    -3.314000000    -7.366000000
O    -0.754000000     4.395000000    -5.521000000
H    -0.514000000     5.054000000    -4.870000000
H    -1.384000000     3.832000000    -5.070000000
O    -8.251000000     0.042000000    -4.275000000
H    -7.416000000     0.045000000    -4.743000000
H    -8.111000000    -0.555000000    -3.540000000
O    -6.752000000     0.842000000    -8.319000000
H    -6.902000000     1.463000000    -9.032000000
H    -6.662000000    -0.005000000    -8.755000000
O    -4.233000000     6.076000000    -4.034000000
H    -3.733000000     5.330000000    -3.703000000
H    -5.147000000     5.798000000    -3.971000000
O     1.058000000     2.338000000    -5.542000000
H     0.505000000     1.557000000    -5.559000000
H     0.440000000     3.067000000    -5.483000000
O    -5.902000000     3.517000000    -7.186000000
H    -6.458000000     2.780000000    -7.439000000
H    -5.013000000     3.164000000    -7.204000000
O    -5.911000000     0.456000000    -5.340000000
H    -5.973000000     0.758000000    -6.246000000
H    -4.983000000     0.254000000    -5.217000000
O    -5.957000000    -3.469000000    -6.432000000
H    -5.127000000    -3.310000000    -6.882000000
H    -5.748000000    -3.374000000    -5.503000000
O    -1.714000000     5.652000000    -8.444000000
H    -1.624000000     4.700000000    -8.407000000
H    -2.437000000     5.848000000    -7.848000000
O    -3.374000000    -0.806000000    -7.487000000
H    -3.176000000    -0.510000000    -6.599000000
H    -2.527000000    -0.806000000    -7.934000000
O    -1.727000000     2.765000000    -9.042000000
H    -2.675000000     2.689000000    -9.151000000
H    -1.362000000     2.325000000    -9.811000000
O     3.677000000     2.893000000    -6.670000000
H     3.616000000     3.810000000    -6.403000000
H     2.911000000     2.477000000    -6.275000000
O    -2.991000000     2.739000000    -6.307000000
H    -2.870000000     1.879000000    -5.905000000
H    -2.172000000     2.903000000    -6.774000000
O    -0.162000000     0.252000000    -7.822000000
H    -0.381000000     1.119000000    -8.164000000
H    -0.598000000     0.214000000    -6.970000000
O     1.027000000     5.138000000    -7.509000000
H     0.159000000     5.196000000    -7.907000000
H     0.869000000     4.760000000    -6.643000000
O    -5.482000000    -1.761000000    -8.656000000
H    -4.677000000    -1.464000000    -8.231000000
H    -5.903000000    -2.323000000    -8.005000000
O    -3.419000000     3.446000000    -3.542000000
H    -3.394000000     2.558000000    -3.185000000
H    -3.538000000     3.322000000    -4.484000000
O    -0.036000000    -1.642000000    -9.788000000
H     0.035000000    -0.941000000    -9.140000000
H    -0.457000000    -1.229000000   -10.543000000
