201
-1260.99404
C    -3.696000000    -3.191000000    -2.050000000
H    -4.093000000    -3.294000000    -1.043000000
C    -2.339000000    -3.471000000    -2.084000000
C    -1.655000000    -3.296000000    -3.311000000
H    -0.606000000    -3.508000000    -3.504000000
C    -1.551000000    -3.927000000    -0.846000000
O    -2.476000000    -4.366000000     0.170000000
H    -1.015000000    -3.001000000    -0.588000000
O    -0.577000000    -4.933000000    -1.094000000
C     0.714000000    -4.757000000    -0.558000000
C     1.678000000    -4.290000000    -1.381000000
H     1.527000000    -4.192000000    -2.453000000
C     2.773000000    -3.767000000    -0.814000000
O     3.643000000    -3.136000000    -1.709000000
C     3.077000000    -3.945000000     0.524000000
C     4.303000000    -3.290000000     1.108000000
H     4.560000000    -3.920000000     1.962000000
C     4.181000000    -1.830000000     1.419000000
C     3.891000000    -1.445000000     2.690000000
H     3.671000000    -2.219000000     3.421000000
H     5.174000000    -3.577000000     0.516000000
C     2.169000000    -4.533000000     1.415000000
H     2.316000000    -4.587000000     2.490000000
C     0.961000000    -4.837000000     0.845000000
C    -0.171000000    -5.304000000     1.781000000
H     0.234000000    -5.692000000     2.718000000
H    -0.807000000    -6.081000000     1.353000000
C    -1.103000000    -4.126000000     2.147000000
C    -0.833000000    -3.464000000     3.331000000
H     0.054000000    -3.601000000     3.944000000
C    -2.209000000    -3.762000000     1.372000000
C    -3.052000000    -2.731000000     1.763000000
H    -3.927000000    -2.453000000     1.181000000
C    -2.759000000    -2.026000000     2.917000000
O    -3.506000000    -0.886000000     3.158000000
C    -2.873000000     0.443000000     3.069000000
C    -3.845000000     1.414000000     2.344000000
C    -3.638000000     2.775000000     2.494000000
H    -2.853000000     3.221000000     3.101000000
C    -4.847000000     0.938000000     1.482000000
H    -4.955000000    -0.127000000     1.292000000
O    -2.324000000     0.933000000     4.323000000
H    -2.076000000     0.347000000     2.316000000
C    -1.651000000    -2.378000000     3.678000000
C    -1.362000000    -1.704000000     5.020000000
H    -0.875000000    -2.418000000     5.687000000
H    -2.247000000    -1.473000000     5.618000000
C    -0.432000000    -0.460000000     4.710000000
C     0.988000000    -0.591000000     4.783000000
H     1.434000000    -1.514000000     5.143000000
C    -0.974000000     0.773000000     4.350000000
C    -0.166000000     1.866000000     4.155000000
H    -0.656000000     2.816000000     3.955000000
C     1.223000000     1.718000000     4.112000000
O     1.964000000     2.814000000     3.744000000
C     2.431000000     2.664000000     2.387000000
C     2.212000000     4.005000000     1.626000000
C     1.248000000     4.878000000     2.105000000
H     0.726000000     4.735000000     3.047000000
C     2.740000000     4.213000000     0.372000000
H     3.548000000     3.628000000    -0.061000000
O     3.807000000     2.263000000     2.265000000
H     1.787000000     1.976000000     1.819000000
C     1.862000000     0.497000000     4.483000000
C     3.386000000     0.353000000     4.430000000
H     3.583000000    -0.411000000     5.185000000
H     3.904000000     1.262000000     4.742000000
C     3.790000000    -0.093000000     3.025000000
C     3.945000000     0.899000000     2.028000000
C     4.333000000     0.485000000     0.720000000
H     4.661000000     1.220000000    -0.010000000
C     4.408000000    -0.880000000     0.417000000
O     4.664000000    -1.256000000    -0.862000000
C     3.601000000    -1.705000000    -1.667000000
H     2.693000000    -1.380000000    -1.137000000
C     3.607000000    -1.097000000    -3.056000000
C     3.259000000    -1.841000000    -4.160000000
H     2.862000000    -2.845000000    -4.031000000
C     3.937000000     0.274000000    -3.198000000
H     4.043000000     0.857000000    -2.286000000
C     4.119000000     0.766000000    -4.466000000
O     4.473000000     2.085000000    -4.734000000
C     3.788000000    -0.022000000    -5.555000000
H     3.796000000     0.461000000    -6.529000000
C     3.278000000    -1.307000000    -5.400000000
O     2.892000000    -2.071000000    -6.467000000
C     1.816000000    -2.795000000    -6.462000000
C     0.552000000    -2.174000000    -6.250000000
H     0.427000000    -1.111000000    -6.059000000
C     1.925000000    -4.174000000    -6.654000000
H     2.861000000    -4.589000000    -7.018000000
C     0.788000000    -5.005000000    -6.494000000
H     0.943000000    -6.066000000    -6.675000000
C    -0.454000000    -4.454000000    -6.205000000
H    -1.345000000    -5.074000000    -6.138000000
C    -0.527000000    -3.039000000    -6.004000000
O    -1.738000000    -2.453000000    -5.655000000
C    -2.322000000    -2.668000000    -4.423000000
C    -3.646000000    -2.351000000    -4.273000000
H    -4.181000000    -1.944000000    -5.128000000
C    -4.379000000    -2.557000000    -3.086000000
O    -5.692000000    -2.168000000    -3.055000000
C    -6.356000000    -1.744000000    -1.892000000
C    -6.143000000    -0.428000000    -1.533000000
H    -5.611000000     0.198000000    -2.245000000
C    -7.059000000    -2.622000000    -1.022000000
H    -7.248000000    -3.609000000    -1.435000000
C    -7.728000000    -2.139000000     0.102000000
H    -8.336000000    -2.759000000     0.757000000
C    -7.607000000    -0.795000000     0.425000000
H    -8.043000000    -0.368000000     1.325000000
C    -6.808000000     0.066000000    -0.389000000
O    -6.685000000     1.409000000     0.004000000
C    -5.638000000     1.910000000     0.802000000
C    -5.418000000     3.256000000     0.954000000
H    -6.079000000     3.994000000     0.508000000
C    -4.456000000     3.694000000     1.821000000
O    -4.405000000     5.034000000     2.050000000
C    -3.344000000     5.663000000     2.623000000
C    -2.111000000     5.760000000     1.947000000
H    -2.022000000     5.341000000     0.949000000
C    -3.566000000     6.327000000     3.787000000
H    -4.549000000     6.302000000     4.252000000
C    -2.587000000     7.119000000     4.341000000
H    -2.826000000     7.579000000     5.296000000
C    -1.410000000     7.293000000     3.684000000
H    -0.697000000     8.026000000     4.053000000
C    -1.167000000     6.663000000     2.448000000
O     0.066000000     6.996000000     1.747000000
C     0.928000000     5.993000000     1.344000000
C     1.520000000     6.114000000     0.078000000
H     1.208000000     7.024000000    -0.428000000
C     2.356000000     5.248000000    -0.433000000
O     2.902000000     5.469000000    -1.740000000
C     4.003000000     4.832000000    -2.245000000
C     5.194000000     4.817000000    -1.583000000
H     5.328000000     5.581000000    -0.821000000
C     6.254000000     4.119000000    -2.112000000
H     7.253000000     4.213000000    -1.693000000
C     6.016000000     3.177000000    -3.146000000
H     6.786000000     2.507000000    -3.519000000
C     4.730000000     2.992000000    -3.671000000
C     3.752000000     3.885000000    -3.223000000
H     2.801000000     3.889000000    -3.750000000
O     0.071000000     4.260000000    -4.846000000
H    -0.245000000     3.361000000    -4.932000000
H     0.728000000     4.351000000    -5.535000000
O    -3.664000000     5.466000000    -2.938000000
H    -2.732000000     5.669000000    -2.863000000
H    -3.702000000     4.509000000    -2.937000000
O    -4.015000000    -2.370000000    -8.031000000
H    -3.528000000    -1.687000000    -8.492000000
H    -3.355000000    -2.818000000    -7.501000000
O    -1.280000000     3.015000000    -0.892000000
H    -2.121000000     2.854000000    -1.319000000
H    -0.878000000     2.149000000    -0.822000000
O    -5.439000000     1.701000000    -5.899000000
H    -4.512000000     1.560000000    -5.707000000
H    -5.900000000     1.134000000    -5.280000000
O    -6.300000000     2.426000000    -8.215000000
H    -6.177000000     2.115000000    -7.318000000
H    -5.807000000     3.246000000    -8.253000000
O    -1.082000000     4.263000000    -7.864000000
H    -1.309000000     5.164000000    -8.094000000
H    -1.483000000     4.126000000    -7.006000000
O     1.036000000     1.353000000    -7.085000000
H     0.432000000     1.148000000    -6.371000000
H     1.531000000     2.110000000    -6.770000000
O    -1.738000000     6.477000000    -5.003000000
H    -1.118000000     5.768000000    -4.831000000
H    -1.188000000     7.239000000    -5.182000000
O    -0.164000000     2.247000000    -9.426000000
H     0.346000000     1.688000000    -8.839000000
H    -0.378000000     3.016000000    -8.898000000
O    -1.916000000     0.763000000    -7.442000000
H    -1.734000000     1.696000000    -7.557000000
H    -2.197000000     0.685000000    -6.530000000
O     1.901000000    -0.334000000    -8.964000000
H     2.294000000    -0.732000000    -8.188000000
H     1.384000000     0.396000000    -8.624000000
O    -6.393000000     3.163000000    -2.203000000
H    -6.640000000     2.803000000    -1.351000000
H    -6.845000000     4.006000000    -2.247000000
O    -3.390000000     6.517000000    -7.414000000
H    -2.785000000     6.485000000    -6.673000000
H    -2.920000000     7.013000000    -8.085000000
O    -2.851000000     3.811000000    -5.766000000
H    -2.865000000     2.935000000    -5.381000000
H    -3.329000000     4.355000000    -5.140000000
O    -1.930000000    -0.813000000    -9.557000000
H    -1.684000000    -0.189000000   -10.240000000
H    -2.057000000    -0.275000000    -8.775000000
O    -3.810000000     2.651000000    -2.352000000
H    -3.711000000     2.361000000    -3.259000000
H    -4.756000000     2.677000000    -2.210000000
O    -0.850000000     5.214000000    -2.396000000
H    -0.261000000     4.902000000    -3.083000000
H    -0.886000000     4.494000000    -1.766000000
O     2.403000000     4.242000000    -6.913000000
H     2.011000000     5.025000000    -6.526000000
H     2.237000000     4.331000000    -7.852000000
