201
-1261.99238
C    -4.133000000    -1.536000000    -1.676000000
H    -3.541000000    -1.200000000    -2.524000000
C    -4.556000000    -0.631000000    -0.745000000
C    -5.327000000    -1.166000000     0.299000000
H    -5.684000000    -0.483000000     1.066000000
C    -4.149000000     0.827000000    -0.748000000
O    -4.386000000     1.452000000    -2.040000000
H    -3.067000000     0.823000000    -0.545000000
O    -4.835000000     1.651000000     0.267000000
C    -3.985000000     2.415000000     1.072000000
C    -3.749000000     1.963000000     2.343000000
H    -4.139000000     1.023000000     2.725000000
C    -2.666000000     2.592000000     3.044000000
O    -2.224000000     2.025000000     4.249000000
C    -2.018000000     3.725000000     2.527000000
C    -0.876000000     4.376000000     3.262000000
H    -0.856000000     5.447000000     3.049000000
C     0.528000000     3.795000000     2.953000000
C     1.368000000     4.462000000     2.050000000
H     1.156000000     5.452000000     1.653000000
H    -1.140000000     4.337000000     4.321000000
C    -2.464000000     4.278000000     1.304000000
H    -2.014000000     5.198000000     0.942000000
C    -3.393000000     3.553000000     0.563000000
C    -3.814000000     4.022000000    -0.831000000
H    -3.593000000     5.081000000    -0.978000000
H    -4.848000000     3.828000000    -1.126000000
C    -2.958000000     3.348000000    -1.838000000
C    -1.823000000     4.058000000    -2.265000000
H    -1.603000000     5.017000000    -1.804000000
C    -3.348000000     2.178000000    -2.467000000
C    -2.442000000     1.551000000    -3.284000000
H    -2.545000000     0.527000000    -3.633000000
C    -1.327000000     2.248000000    -3.720000000
O    -0.459000000     1.587000000    -4.494000000
C     0.574000000     0.917000000    -3.873000000
C     0.819000000    -0.528000000    -4.336000000
C     2.072000000    -1.181000000    -4.279000000
H     2.868000000    -0.586000000    -3.840000000
C    -0.253000000    -1.178000000    -5.038000000
H    -1.210000000    -0.663000000    -5.067000000
O     1.667000000     1.696000000    -4.210000000
H     0.386000000     0.938000000    -2.789000000
C    -1.015000000     3.559000000    -3.320000000
C     0.285000000     4.217000000    -3.750000000
H     0.295000000     5.308000000    -3.703000000
H     0.521000000     3.968000000    -4.786000000
C     1.484000000     3.706000000    -2.953000000
C     1.847000000     4.385000000    -1.768000000
H     1.316000000     5.257000000    -1.397000000
C     2.147000000     2.526000000    -3.231000000
C     3.173000000     2.055000000    -2.495000000
H     3.597000000     1.114000000    -2.837000000
C     3.557000000     2.652000000    -1.330000000
O     4.489000000     1.946000000    -0.603000000
C     3.994000000     1.210000000     0.604000000
C     4.657000000    -0.142000000     0.715000000
C     5.290000000    -0.672000000    -0.379000000
H     5.227000000    -0.235000000    -1.372000000
C     4.678000000    -0.864000000     1.913000000
H     4.160000000    -0.437000000     2.768000000
O     4.113000000     1.999000000     1.708000000
H     2.925000000     1.011000000     0.440000000
C     2.920000000     3.866000000    -0.986000000
C     3.318000000     4.499000000     0.350000000
H     3.275000000     5.590000000     0.382000000
H     4.335000000     4.173000000     0.577000000
C     2.504000000     3.849000000     1.545000000
C     3.001000000     2.711000000     2.176000000
C     2.256000000     2.128000000     3.147000000
H     2.621000000     1.173000000     3.516000000
C     0.980000000     2.607000000     3.471000000
O     0.179000000     1.976000000     4.417000000
C    -0.983000000     1.308000000     4.051000000
H    -0.939000000     0.989000000     2.999000000
C    -0.943000000    -0.098000000     4.694000000
C    -2.141000000    -0.800000000     4.821000000
H    -3.106000000    -0.382000000     4.546000000
C     0.294000000    -0.676000000     5.083000000
H     1.163000000    -0.024000000     5.047000000
C     0.360000000    -2.041000000     5.543000000
O     1.525000000    -2.687000000     5.931000000
C    -0.821000000    -2.783000000     5.506000000
H    -0.771000000    -3.797000000     5.892000000
C    -2.044000000    -2.182000000     5.169000000
O    -3.130000000    -3.076000000     5.098000000
C    -4.397000000    -2.644000000     4.648000000
C    -4.755000000    -2.912000000     3.310000000
H    -3.983000000    -3.112000000     2.571000000
C    -5.293000000    -2.096000000     5.494000000
H    -5.029000000    -1.807000000     6.508000000
C    -6.560000000    -1.770000000     5.020000000
H    -7.316000000    -1.418000000     5.718000000
C    -6.935000000    -2.048000000     3.700000000
H    -7.943000000    -1.899000000     3.321000000
C    -5.986000000    -2.518000000     2.791000000
O    -6.340000000    -2.969000000     1.546000000
C    -5.786000000    -2.486000000     0.383000000
C    -5.338000000    -3.324000000    -0.643000000
H    -5.654000000    -4.364000000    -0.647000000
C    -4.482000000    -2.892000000    -1.659000000
O    -4.043000000    -3.791000000    -2.617000000
C    -3.872000000    -3.481000000    -3.911000000
C    -2.596000000    -3.466000000    -4.409000000
H    -1.745000000    -3.661000000    -3.761000000
C    -4.951000000    -3.074000000    -4.746000000
H    -5.895000000    -3.185000000    -4.219000000
C    -4.757000000    -2.839000000    -6.083000000
H    -5.632000000    -2.672000000    -6.706000000
C    -3.470000000    -2.866000000    -6.675000000
H    -3.382000000    -2.596000000    -7.725000000
C    -2.435000000    -3.096000000    -5.783000000
O    -1.133000000    -3.129000000    -6.209000000
C    -0.109000000    -2.427000000    -5.564000000
C     1.156000000    -3.066000000    -5.483000000
H     1.292000000    -4.053000000    -5.917000000
C     2.202000000    -2.490000000    -4.805000000
O     3.396000000    -3.183000000    -4.878000000
C     4.628000000    -2.683000000    -4.433000000
C     5.001000000    -2.783000000    -3.141000000
H     4.298000000    -3.280000000    -2.478000000
C     5.547000000    -2.183000000    -5.322000000
H     5.390000000    -2.135000000    -6.397000000
C     6.822000000    -1.765000000    -4.924000000
H     7.525000000    -1.337000000    -5.633000000
C     7.216000000    -1.848000000    -3.593000000
H     8.170000000    -1.449000000    -3.258000000
C     6.263000000    -2.323000000    -2.694000000
O     6.644000000    -2.485000000    -1.375000000
C     5.957000000    -1.926000000    -0.327000000
C     6.004000000    -2.578000000     0.912000000
H     6.571000000    -3.504000000     0.972000000
C     5.362000000    -2.053000000     2.036000000
O     5.453000000    -2.734000000     3.249000000
C     4.765000000    -2.248000000     4.337000000
C     5.433000000    -1.556000000     5.341000000
H     6.510000000    -1.404000000     5.341000000
C     4.808000000    -1.287000000     6.498000000
H     5.274000000    -0.700000000     7.285000000
C     3.432000000    -1.581000000     6.744000000
H     3.031000000    -1.345000000     7.726000000
C     2.794000000    -2.136000000     5.685000000
C     3.387000000    -2.521000000     4.519000000
H     2.915000000    -2.937000000     3.633000000
O    -4.745000000    -6.835000000     1.062000000
H    -4.074000000    -6.161000000     1.171000000
H    -5.567000000    -6.391000000     1.274000000
O    -0.905000000    -9.756000000     0.450000000
H    -0.433000000    -8.932000000     0.327000000
H    -0.775000000    -9.971000000     1.373000000
O    -2.586000000    -6.529000000    -3.072000000
H    -2.298000000    -5.957000000    -2.361000000
H    -2.375000000    -7.412000000    -2.770000000
O    -3.304000000    -8.552000000    -0.402000000
H    -2.564000000    -8.790000000     0.158000000
H    -3.851000000    -7.992000000     0.150000000
O     0.028000000    -7.323000000    -0.287000000
H    -0.581000000    -6.604000000    -0.458000000
H     0.578000000    -7.361000000    -1.069000000
O    -2.772000000    -9.726000000    -2.732000000
H    -2.717000000    -9.349000000    -1.854000000
H    -3.680000000   -10.017000000    -2.811000000
O     5.355000000    -6.493000000    -1.189000000
H     4.414000000    -6.330000000    -1.260000000
H     5.426000000    -7.212000000    -0.562000000
O    -0.227000000    -6.010000000    -4.242000000
H    -1.161000000    -6.110000000    -4.054000000
H     0.107000000    -5.476000000    -3.522000000
O    -2.630000000    -5.153000000     1.560000000
H    -1.917000000    -5.348000000     2.168000000
H    -2.191000000    -4.906000000     0.746000000
O     2.391000000    -8.560000000     0.012000000
H     1.595000000    -8.187000000     0.391000000
H     2.326000000    -8.364000000    -0.922000000
O     2.670000000    -5.711000000    -1.476000000
H     2.795000000    -6.543000000    -1.933000000
H     1.778000000    -5.446000000    -1.702000000
O    -4.084000000    -6.607000000    -5.336000000
H    -4.641000000    -5.829000000    -5.356000000
H    -3.695000000    -6.600000000    -4.461000000
O    -0.089000000    -5.465000000     3.489000000
H     0.556000000    -4.792000000     3.273000000
H     0.435000000    -6.223000000     3.750000000
O    -5.630000000    -7.522000000    -2.177000000
H    -6.095000000    -7.809000000    -1.392000000
H    -4.783000000    -7.213000000    -1.855000000
O     2.708000000    -4.366000000     0.671000000
H     2.548000000    -4.916000000    -0.097000000
H     3.656000000    -4.237000000     0.679000000
O     0.559000000    -7.218000000    -6.591000000
H    -0.325000000    -7.292000000    -6.950000000
H     0.439000000    -6.788000000    -5.745000000
O     2.195000000    -8.326000000    -2.783000000
H     2.054000000    -7.740000000    -3.527000000
H     2.434000000    -9.164000000    -3.180000000
O     0.929000000    -3.118000000     2.206000000
H     0.577000000    -2.389000000     1.695000000
H     1.427000000    -3.635000000     1.574000000
O     2.782000000    -6.081000000     2.816000000
H     2.626000000    -5.363000000     2.203000000
H     2.542000000    -6.869000000     2.328000000
