201
-1250.40434
C    -4.091000000    -3.361000000    -0.029000000
H    -4.099000000    -3.032000000     1.008000000
C    -2.962000000    -3.978000000    -0.562000000
C    -2.945000000    -4.299000000    -1.922000000
H    -2.164000000    -4.961000000    -2.286000000
C    -1.632000000    -4.160000000     0.279000000
O    -1.873000000    -4.409000000     1.692000000
H    -1.148000000    -3.178000000     0.169000000
O    -0.657000000    -5.084000000    -0.228000000
C     0.618000000    -4.617000000    -0.270000000
C     0.996000000    -4.037000000    -1.490000000
H     0.287000000    -4.046000000    -2.314000000
C     2.274000000    -3.480000000    -1.551000000
O     2.755000000    -2.800000000    -2.636000000
C     3.113000000    -3.451000000    -0.400000000
C     4.632000000    -2.949000000    -0.465000000
H     5.187000000    -3.509000000     0.291000000
C     4.766000000    -1.465000000    -0.206000000
C     4.857000000    -1.005000000     1.152000000
H     4.782000000    -1.797000000     1.893000000
H     5.076000000    -3.338000000    -1.384000000
C     2.646000000    -3.982000000     0.837000000
H     3.359000000    -4.165000000     1.636000000
C     1.370000000    -4.528000000     0.897000000
C     0.858000000    -5.040000000     2.214000000
H     1.699000000    -5.341000000     2.842000000
H     0.306000000    -5.965000000     2.033000000
C     0.087000000    -3.970000000     2.979000000
C     0.701000000    -3.153000000     3.938000000
H     1.734000000    -3.323000000     4.229000000
C    -1.231000000    -3.702000000     2.665000000
C    -1.919000000    -2.645000000     3.234000000
H    -2.954000000    -2.450000000     2.964000000
C    -1.218000000    -1.788000000     4.058000000
O    -1.872000000    -0.689000000     4.469000000
C    -1.594000000     0.634000000     3.806000000
C    -2.819000000     1.379000000     3.495000000
C    -2.641000000     2.704000000     3.033000000
H    -1.672000000     3.181000000     2.913000000
C    -4.031000000     0.774000000     3.523000000
H    -4.094000000    -0.306000000     3.639000000
O    -0.641000000     1.354000000     4.623000000
H    -1.073000000     0.365000000     2.877000000
C     0.082000000    -2.059000000     4.505000000
C     0.847000000    -1.111000000     5.394000000
H     1.633000000    -1.574000000     5.996000000
H     0.120000000    -0.741000000     6.120000000
C     1.376000000     0.011000000     4.520000000
C     2.755000000    -0.031000000     4.165000000
H     3.292000000    -0.931000000     4.455000000
C     0.640000000     1.154000000     4.219000000
C     1.300000000     2.207000000     3.542000000
H     0.683000000     3.068000000     3.299000000
C     2.629000000     2.099000000     3.248000000
O     3.097000000     3.101000000     2.393000000
C     3.074000000     2.870000000     0.964000000
C     2.389000000     3.956000000     0.159000000
C     1.485000000     4.821000000     0.750000000
H     1.069000000     4.566000000     1.722000000
C     2.862000000     4.201000000    -1.154000000
H     3.508000000     3.552000000    -1.741000000
O     4.464000000     2.537000000     0.499000000
H     2.479000000     1.948000000     0.881000000
C     3.370000000     0.967000000     3.467000000
C     4.745000000     0.752000000     2.886000000
H     5.289000000    -0.002000000     3.456000000
H     5.388000000     1.623000000     3.024000000
C     4.773000000     0.332000000     1.460000000
C     4.682000000     1.253000000     0.352000000
C     4.520000000     0.758000000    -0.894000000
H     4.347000000     1.469000000    -1.699000000
C     4.544000000    -0.548000000    -1.219000000
O     4.150000000    -0.894000000    -2.424000000
C     2.780000000    -1.333000000    -2.610000000
H     2.158000000    -1.004000000    -1.764000000
C     2.207000000    -0.811000000    -3.907000000
C     1.092000000    -1.448000000    -4.447000000
H     0.754000000    -2.374000000    -3.988000000
C     2.534000000     0.445000000    -4.442000000
H     3.338000000     1.052000000    -4.035000000
C     1.933000000     0.953000000    -5.603000000
O     2.436000000     1.991000000    -6.271000000
C     0.880000000     0.204000000    -6.164000000
H     0.428000000     0.506000000    -7.106000000
C     0.398000000    -0.901000000    -5.536000000
O    -0.532000000    -1.568000000    -6.277000000
C    -1.148000000    -2.812000000    -5.962000000
C    -2.229000000    -2.975000000    -5.071000000
H    -2.647000000    -2.089000000    -4.600000000
C    -0.577000000    -3.938000000    -6.433000000
H     0.337000000    -3.791000000    -7.003000000
C    -1.106000000    -5.208000000    -6.227000000
H    -0.644000000    -6.044000000    -6.746000000
C    -2.257000000    -5.409000000    -5.447000000
H    -2.702000000    -6.383000000    -5.259000000
C    -2.811000000    -4.252000000    -4.869000000
O    -3.945000000    -4.328000000    -4.095000000
C    -3.995000000    -3.910000000    -2.746000000
C    -5.039000000    -3.149000000    -2.205000000
H    -5.800000000    -2.700000000    -2.837000000
C    -5.061000000    -2.879000000    -0.856000000
O    -6.168000000    -2.172000000    -0.381000000
C    -6.445000000    -1.930000000     0.956000000
C    -6.499000000    -0.609000000     1.421000000
H    -6.371000000     0.179000000     0.684000000
C    -6.746000000    -2.982000000     1.871000000
H    -6.810000000    -3.950000000     1.380000000
C    -6.935000000    -2.682000000     3.224000000
H    -7.230000000    -3.454000000     3.929000000
C    -6.738000000    -1.366000000     3.724000000
H    -6.729000000    -1.166000000     4.792000000
C    -6.516000000    -0.360000000     2.781000000
O    -6.392000000     0.924000000     3.258000000
C    -5.151000000     1.511000000     3.238000000
C    -5.018000000     2.901000000     2.950000000
H    -5.892000000     3.505000000     2.720000000
C    -3.736000000     3.437000000     2.739000000
O    -3.725000000     4.707000000     2.469000000
C    -2.676000000     5.534000000     2.644000000
C    -1.819000000     5.720000000     1.554000000
H    -2.068000000     5.203000000     0.631000000
C    -2.375000000     6.082000000     3.889000000
H    -2.949000000     5.965000000     4.804000000
C    -1.160000000     6.709000000     4.063000000
H    -0.894000000     6.955000000     5.088000000
C    -0.355000000     6.937000000     3.018000000
H     0.602000000     7.451000000     3.072000000
C    -0.692000000     6.463000000     1.730000000
O     0.159000000     6.801000000     0.646000000
C     1.040000000     5.936000000     0.059000000
C     1.419000000     6.151000000    -1.273000000
H     1.003000000     7.003000000    -1.804000000
C     2.367000000     5.323000000    -1.828000000
O     2.742000000     5.661000000    -3.066000000
C     3.312000000     4.808000000    -4.008000000
C     4.496000000     5.239000000    -4.642000000
H     5.004000000     6.151000000    -4.337000000
C     5.003000000     4.464000000    -5.704000000
H     5.920000000     4.789000000    -6.191000000
C     4.273000000     3.350000000    -6.162000000
H     4.553000000     2.853000000    -7.088000000
C     3.001000000     3.081000000    -5.658000000
C     2.564000000     3.768000000    -4.538000000
H     1.550000000     3.566000000    -4.202000000
O    -2.354000000     1.702000000    -5.467000000
H    -2.927000000     1.048000000    -5.866000000
H    -1.786000000     1.200000000    -4.884000000
O    -6.878000000     6.405000000    -2.565000000
H    -6.501000000     5.940000000    -1.818000000
H    -6.155000000     6.484000000    -3.187000000
O    -1.769000000     0.468000000    -3.021000000
H    -2.719000000     0.507000000    -2.908000000
H    -1.416000000     0.677000000    -2.156000000
O     0.679000000     6.819000000    -5.508000000
H    -0.164000000     6.938000000    -5.945000000
H     0.523000000     6.122000000    -4.871000000
O    -4.491000000     0.263000000    -2.604000000
H    -5.018000000     0.983000000    -2.951000000
H    -5.133000000    -0.389000000    -2.323000000
O    -5.184000000     5.759000000    -0.254000000
H    -4.889000000     4.993000000    -0.746000000
H    -5.192000000     5.470000000     0.658000000
O    -3.595000000     8.963000000    -4.414000000
H    -3.931000000     8.079000000    -4.262000000
H    -2.739000000     8.970000000    -3.987000000
O    -0.670000000     4.635000000    -4.436000000
H    -1.348000000     4.506000000    -3.772000000
H    -1.028000000     4.231000000    -5.226000000
O    -4.483000000     8.211000000    -0.782000000
H    -4.984000000     7.403000000    -0.674000000
H    -3.633000000     7.923000000    -1.114000000
O    -3.543000000     4.087000000    -5.085000000
H    -3.034000000     3.280000000    -5.164000000
H    -4.151000000     4.059000000    -5.823000000
O    -7.543000000     3.963000000    -5.128000000
H    -6.838000000     4.340000000    -5.654000000
H    -7.103000000     3.341000000    -4.549000000
O    -7.277000000    -0.006000000    -1.719000000
H    -7.202000000    -0.151000000    -0.776000000
H    -7.566000000     0.903000000    -1.800000000
O    -2.010000000     7.490000000    -1.468000000
H    -1.661000000     7.283000000    -0.601000000
H    -1.745000000     6.750000000    -2.016000000
O    -8.239000000     3.890000000     1.497000000
H    -8.569000000     3.056000000     1.832000000
H    -7.613000000     3.643000000     0.817000000
O    -5.499000000     2.632000000    -3.508000000
H    -5.257000000     2.956000000    -2.640000000
H    -4.799000000     2.940000000    -4.083000000
O    -4.394000000     6.233000000    -3.634000000
H    -4.122000000     5.673000000    -2.907000000
H    -4.198000000     5.721000000    -4.418000000
O    -6.487000000     2.757000000    -0.404000000
H    -7.199000000     2.819000000    -1.041000000
H    -5.695000000     2.927000000    -0.913000000
O    -1.696000000     6.642000000    -6.847000000
H    -1.944000000     5.948000000    -6.237000000
H    -1.233000000     6.189000000    -7.551000000
O    -1.131000000     3.832000000    -6.970000000
H    -0.409000000     3.510000000    -7.510000000
H    -1.656000000     3.053000000    -6.785000000
