201
-1242.68073
C    -3.624000000    -2.397000000     0.243000000
H    -3.483000000    -1.728000000     1.088000000
C    -2.759000000    -3.466000000     0.025000000
C    -2.870000000    -4.281000000    -1.119000000
H    -2.151000000    -5.089000000    -1.235000000
C    -1.613000000    -3.694000000     1.057000000
O    -2.049000000    -3.641000000     2.428000000
H    -0.990000000    -2.796000000     0.934000000
O    -0.857000000    -4.876000000     0.811000000
C     0.485000000    -4.631000000     0.659000000
C     0.957000000    -4.461000000    -0.628000000
H     0.280000000    -4.435000000    -1.478000000
C     2.269000000    -3.986000000    -0.878000000
O     2.622000000    -3.694000000    -2.228000000
C     3.229000000    -3.864000000     0.200000000
C     4.597000000    -3.347000000    -0.123000000
H     5.382000000    -3.608000000     0.590000000
C     4.479000000    -1.818000000    -0.184000000
C     4.726000000    -1.132000000     0.980000000
H     4.848000000    -1.637000000     1.935000000
H     5.022000000    -3.744000000    -1.048000000
C     2.722000000    -4.031000000     1.496000000
H     3.432000000    -3.845000000     2.299000000
C     1.366000000    -4.481000000     1.714000000
C     0.758000000    -4.512000000     3.158000000
H     1.684000000    -4.622000000     3.726000000
H    -0.061000000    -5.225000000     3.272000000
C     0.164000000    -3.195000000     3.541000000
C     0.959000000    -2.331000000     4.269000000
H     2.018000000    -2.503000000     4.439000000
C    -1.201000000    -2.945000000     3.300000000
C    -1.731000000    -1.772000000     3.742000000
H    -2.800000000    -1.586000000     3.672000000
C    -0.954000000    -0.886000000     4.515000000
O    -1.515000000     0.387000000     4.772000000
C    -1.202000000     1.500000000     3.915000000
C    -2.475000000     2.329000000     3.769000000
C    -2.435000000     3.706000000     3.517000000
H    -1.455000000     4.155000000     3.661000000
C    -3.772000000     1.711000000     3.592000000
H    -3.903000000     0.636000000     3.686000000
O    -0.183000000     2.265000000     4.596000000
H    -0.806000000     1.093000000     2.973000000
C     0.421000000    -1.119000000     4.700000000
C     1.243000000    -0.197000000     5.464000000
H     2.087000000    -0.640000000     5.997000000
H     0.648000000     0.254000000     6.261000000
C     1.850000000     0.864000000     4.562000000
C     3.134000000     0.675000000     4.056000000
H     3.597000000    -0.284000000     4.277000000
C     1.120000000     2.088000000     4.283000000
C     1.675000000     2.927000000     3.333000000
H     1.134000000     3.808000000     2.999000000
C     2.888000000     2.617000000     2.691000000
O     3.235000000     3.294000000     1.603000000
C     3.000000000     2.873000000     0.268000000
C     2.478000000     4.041000000    -0.521000000
C     1.613000000     4.996000000    -0.015000000
H     1.401000000     5.029000000     1.051000000
C     2.565000000     3.916000000    -1.967000000
H     3.149000000     3.134000000    -2.445000000
O     4.208000000     2.317000000    -0.220000000
H     2.167000000     2.154000000     0.245000000
C     3.530000000     1.441000000     2.971000000
C     4.829000000     1.104000000     2.283000000
H     5.515000000     0.651000000     3.002000000
H     5.264000000     2.076000000     2.042000000
C     4.638000000     0.299000000     0.973000000
C     4.416000000     0.967000000    -0.189000000
C     4.137000000     0.243000000    -1.373000000
H     3.794000000     0.687000000    -2.304000000
C     4.125000000    -1.138000000    -1.335000000
O     3.816000000    -1.776000000    -2.549000000
C     2.541000000    -2.359000000    -2.643000000
H     1.913000000    -1.813000000    -1.922000000
C     1.854000000    -2.090000000    -4.039000000
C     0.960000000    -2.973000000    -4.556000000
H     0.708000000    -3.848000000    -3.963000000
C     2.211000000    -0.934000000    -4.751000000
H     2.924000000    -0.219000000    -4.349000000
C     1.463000000    -0.626000000    -5.929000000
O     1.423000000     0.653000000    -6.550000000
C     0.478000000    -1.467000000    -6.402000000
H    -0.086000000    -1.290000000    -7.314000000
C     0.316000000    -2.739000000    -5.791000000
O    -0.657000000    -3.632000000    -6.271000000
C    -1.207000000    -4.584000000    -5.479000000
C    -2.308000000    -4.240000000    -4.735000000
H    -2.658000000    -3.211000000    -4.708000000
C    -0.755000000    -5.927000000    -5.457000000
H     0.175000000    -6.196000000    -5.950000000
C    -1.427000000    -6.898000000    -4.733000000
H    -1.116000000    -7.937000000    -4.804000000
C    -2.529000000    -6.468000000    -3.990000000
H    -3.073000000    -7.232000000    -3.441000000
C    -2.967000000    -5.153000000    -3.895000000
O    -4.088000000    -4.764000000    -3.221000000
C    -3.940000000    -4.081000000    -1.998000000
C    -4.846000000    -3.056000000    -1.714000000
H    -5.696000000    -2.999000000    -2.390000000
C    -4.695000000    -2.269000000    -0.638000000
O    -5.724000000    -1.437000000    -0.344000000
C    -6.126000000    -0.987000000     0.891000000
C    -5.824000000     0.263000000     1.337000000
H    -5.225000000     0.819000000     0.620000000
C    -6.978000000    -1.835000000     1.541000000
H    -7.173000000    -2.801000000     1.082000000
C    -7.541000000    -1.425000000     2.746000000
H    -8.280000000    -2.034000000     3.262000000
C    -7.188000000    -0.151000000     3.256000000
H    -7.717000000     0.127000000     4.164000000
C    -6.305000000     0.696000000     2.560000000
O    -6.089000000     1.932000000     3.049000000
C    -4.842000000     2.497000000     3.085000000
C    -4.713000000     3.828000000     2.919000000
H    -5.572000000     4.361000000     2.519000000
C    -3.477000000     4.493000000     3.073000000
O    -3.323000000     5.824000000     2.943000000
C    -2.129000000     6.378000000     2.622000000
C    -1.791000000     6.459000000     1.309000000
H    -2.477000000     6.051000000     0.571000000
C    -1.264000000     6.876000000     3.603000000
H    -1.522000000     6.952000000     4.656000000
C    -0.076000000     7.501000000     3.233000000
H     0.645000000     7.932000000     3.923000000
C     0.292000000     7.454000000     1.876000000
H     1.189000000     7.914000000     1.469000000
C    -0.511000000     6.922000000     0.893000000
O    -0.033000000     6.835000000    -0.421000000
C     0.962000000     5.897000000    -0.869000000
C     1.092000000     5.851000000    -2.224000000
H     0.554000000     6.450000000    -2.955000000
C     1.932000000     4.835000000    -2.775000000
O     2.180000000     4.901000000    -4.179000000
C     2.589000000     3.843000000    -4.904000000
C     3.883000000     3.941000000    -5.355000000
H     4.655000000     4.685000000    -5.180000000
C     4.369000000     2.898000000    -6.109000000
H     5.417000000     2.949000000    -6.392000000
C     3.601000000     1.764000000    -6.445000000
H     4.026000000     0.921000000    -6.983000000
C     2.270000000     1.691000000    -6.028000000
C     1.792000000     2.745000000    -5.253000000
H     0.760000000     2.737000000    -4.911000000
O    -1.805000000     1.931000000    -4.818000000
H    -1.920000000     1.578000000    -5.700000000
H    -2.375000000     1.393000000    -4.268000000
O    -2.571000000     7.854000000    -4.060000000
H    -2.907000000     8.719000000    -3.826000000
H    -2.826000000     7.292000000    -3.328000000
O    -3.352000000     0.200000000    -3.351000000
H    -4.271000000    -0.026000000    -3.208000000
H    -2.988000000     0.292000000    -2.470000000
O    -1.189000000     9.456000000    -1.335000000
H    -1.986000000     9.128000000    -1.752000000
H    -0.773000000     8.676000000    -0.968000000
O    -0.477000000     6.310000000    -6.893000000
H    -0.648000000     7.224000000    -6.667000000
H    -0.852000000     5.810000000    -6.168000000
O    -5.757000000     1.498000000    -2.177000000
H    -5.087000000     1.863000000    -2.755000000
H    -6.212000000     2.263000000    -1.824000000
O    -5.110000000     6.342000000     0.275000000
H    -4.428000000     5.685000000     0.139000000
H    -5.594000000     6.031000000     1.039000000
O    -6.484000000     6.906000000    -3.673000000
H    -5.699000000     6.673000000    -3.178000000
H    -6.176000000     7.527000000    -4.332000000
O    -2.601000000     9.334000000     1.773000000
H    -1.906000000     8.688000000     1.646000000
H    -2.479000000     9.645000000     2.669000000
O    -8.012000000     3.387000000     0.536000000
H    -8.435000000     2.880000000     1.230000000
H    -8.731000000     3.853000000     0.109000000
O    -1.736000000     4.564000000    -4.636000000
H    -1.778000000     4.732000000    -3.695000000
H    -1.728000000     3.610000000    -4.709000000
O    -3.785000000     5.423000000    -6.170000000
H    -4.390000000     4.945000000    -5.602000000
H    -2.933000000     5.331000000    -5.743000000
O    -5.150000000     1.855000000    -6.182000000
H    -5.342000000     0.999000000    -5.800000000
H    -4.706000000     2.336000000    -5.483000000
O    -4.007000000     9.007000000    -0.632000000
H    -3.628000000     9.295000000     0.199000000
H    -4.573000000     8.273000000    -0.395000000
O    -7.361000000     6.006000000     1.860000000
H    -8.280000000     6.263000000     1.790000000
H    -7.349000000     5.084000000     1.605000000
O    -4.557000000     3.763000000    -3.694000000
H    -5.320000000     3.951000000    -3.147000000
H    -3.807000000     3.975000000    -3.139000000
O    -4.102000000     6.366000000    -2.348000000
H    -3.579000000     5.588000000    -2.157000000
H    -4.519000000     6.584000000    -1.515000000
O    -6.481000000     4.174000000    -1.458000000
H    -7.009000000     3.856000000    -0.725000000
H    -5.645000000     4.418000000    -1.062000000
O    -6.725000000     0.446000000    -4.580000000
H    -6.633000000    -0.442000000    -4.234000000
H    -6.602000000     1.013000000    -3.819000000
