201
-1245.10643
C    -4.111000000    -1.907000000     3.053000000
H    -3.871000000    -1.340000000     3.949000000
C    -3.221000000    -2.860000000     2.491000000
C    -3.662000000    -3.495000000     1.337000000
H    -2.977000000    -4.048000000     0.700000000
C    -1.718000000    -2.947000000     2.760000000
O    -1.546000000    -2.329000000     4.050000000
H    -1.164000000    -2.287000000     2.077000000
O    -1.097000000    -4.275000000     2.661000000
C     0.149000000    -4.415000000     2.096000000
C     0.238000000    -4.703000000     0.753000000
H    -0.703000000    -4.943000000     0.265000000
C     1.444000000    -4.511000000     0.082000000
O     1.335000000    -4.657000000    -1.259000000
C     2.647000000    -4.157000000     0.761000000
C     3.953000000    -3.976000000     0.028000000
H     4.809000000    -4.241000000     0.652000000
C     4.171000000    -2.649000000    -0.594000000
C     4.730000000    -1.657000000     0.213000000
H     5.315000000    -1.818000000     1.115000000
H     4.041000000    -4.700000000    -0.785000000
C     2.543000000    -3.866000000     2.113000000
H     3.306000000    -3.437000000     2.758000000
C     1.299000000    -3.975000000     2.797000000
C     1.150000000    -3.496000000     4.193000000
H     2.155000000    -3.573000000     4.613000000
H     0.477000000    -4.126000000     4.779000000
C     0.851000000    -2.018000000     4.341000000
C     1.902000000    -1.097000000     4.527000000
H     2.928000000    -1.444000000     4.613000000
C    -0.433000000    -1.545000000     4.334000000
C    -0.711000000    -0.159000000     4.333000000
H    -1.723000000     0.237000000     4.293000000
C     0.340000000     0.739000000     4.498000000
O     0.072000000     2.093000000     4.466000000
C     0.306000000     2.907000000     3.270000000
C    -0.895000000     3.768000000     2.860000000
C    -0.750000000     4.618000000     1.745000000
H     0.224000000     4.748000000     1.279000000
C    -2.170000000     3.676000000     3.431000000
H    -2.269000000     3.073000000     4.330000000
O     1.534000000     3.570000000     3.418000000
H     0.366000000     2.260000000     2.383000000
C     1.650000000     0.289000000     4.540000000
C     2.730000000     1.283000000     4.686000000
H     3.419000000     0.693000000     5.294000000
H     2.344000000     2.085000000     5.318000000
C     3.241000000     1.891000000     3.417000000
C     4.160000000     1.202000000     2.634000000
H     4.698000000     0.358000000     3.057000000
C     2.674000000     3.055000000     2.849000000
C     2.976000000     3.506000000     1.568000000
H     2.415000000     4.329000000     1.133000000
C     3.911000000     2.817000000     0.835000000
O     3.940000000     3.075000000    -0.523000000
C     3.242000000     2.186000000    -1.370000000
C     2.478000000     2.948000000    -2.452000000
C     2.381000000     4.358000000    -2.447000000
H     2.719000000     4.998000000    -1.636000000
C     2.022000000     2.232000000    -3.592000000
H     2.092000000     1.157000000    -3.739000000
O     4.141000000     1.288000000    -1.972000000
H     2.571000000     1.459000000    -0.889000000
C     4.442000000     1.648000000     1.331000000
C     5.482000000     0.785000000     0.587000000
H     6.133000000     0.324000000     1.333000000
H     6.170000000     1.314000000    -0.076000000
C     4.788000000    -0.307000000    -0.255000000
C     4.166000000    -0.024000000    -1.458000000
C     3.550000000    -1.035000000    -2.240000000
H     3.120000000    -0.741000000    -3.194000000
C     3.506000000    -2.352000000    -1.776000000
O     2.747000000    -3.254000000    -2.442000000
C     1.415000000    -3.500000000    -2.038000000
H     1.036000000    -2.617000000    -1.505000000
C     0.539000000    -3.780000000    -3.253000000
C    -0.638000000    -4.665000000    -3.265000000
H    -0.938000000    -5.343000000    -2.470000000
C     0.734000000    -2.968000000    -4.428000000
H     1.604000000    -2.318000000    -4.450000000
C    -0.036000000    -3.065000000    -5.585000000
O     0.263000000    -2.404000000    -6.737000000
C    -1.211000000    -3.836000000    -5.495000000
H    -1.883000000    -3.817000000    -6.349000000
C    -1.511000000    -4.623000000    -4.385000000
O    -2.769000000    -5.142000000    -4.331000000
C    -3.506000000    -5.390000000    -3.158000000
C    -3.902000000    -4.346000000    -2.367000000
H    -3.497000000    -3.387000000    -2.679000000
C    -4.064000000    -6.630000000    -3.009000000
H    -3.832000000    -7.458000000    -3.673000000
C    -5.058000000    -6.836000000    -2.073000000
H    -5.550000000    -7.804000000    -2.031000000
C    -5.400000000    -5.804000000    -1.246000000
H    -6.205000000    -5.945000000    -0.530000000
C    -4.767000000    -4.571000000    -1.302000000
O    -5.271000000    -3.527000000    -0.577000000
C    -4.865000000    -3.053000000     0.692000000
C    -5.707000000    -2.106000000     1.289000000
H    -6.659000000    -1.895000000     0.810000000
C    -5.317000000    -1.424000000     2.402000000
O    -6.008000000    -0.341000000     2.813000000
C    -5.600000000     0.723000000     3.692000000
C    -5.152000000     1.998000000     3.202000000
H    -4.919000000     2.066000000     2.143000000
C    -5.939000000     0.592000000     5.023000000
H    -6.193000000    -0.384000000     5.428000000
C    -5.813000000     1.676000000     5.916000000
H    -5.982000000     1.464000000     6.968000000
C    -5.368000000     2.904000000     5.470000000
H    -5.307000000     3.737000000     6.166000000
C    -4.952000000     3.065000000     4.147000000
O    -4.436000000     4.281000000     3.742000000
C    -3.316000000     4.334000000     2.988000000
C    -3.155000000     5.152000000     1.856000000
H    -4.013000000     5.729000000     1.521000000
C    -1.918000000     5.315000000     1.275000000
O    -1.949000000     6.146000000     0.188000000
C    -0.758000000     6.609000000    -0.374000000
C    -0.264000000     6.097000000    -1.585000000
H    -0.886000000     5.331000000    -2.042000000
C    -0.140000000     7.663000000     0.252000000
H    -0.645000000     8.109000000     1.105000000
C     1.052000000     8.146000000    -0.285000000
H     1.558000000     8.996000000     0.166000000
C     1.595000000     7.582000000    -1.449000000
H     2.544000000     7.943000000    -1.840000000
C     0.868000000     6.676000000    -2.188000000
O     1.306000000     6.274000000    -3.338000000
C     1.675000000     5.011000000    -3.463000000
C     1.236000000     4.269000000    -4.533000000
H     0.765000000     4.757000000    -5.383000000
C     1.368000000     2.882000000    -4.618000000
O     1.010000000     2.238000000    -5.777000000
C     1.553000000     1.040000000    -6.271000000
C     2.778000000     0.969000000    -6.828000000
H     3.419000000     1.844000000    -6.897000000
C     3.192000000    -0.198000000    -7.431000000
H     4.146000000    -0.221000000    -7.950000000
C     2.348000000    -1.300000000    -7.398000000
H     2.654000000    -2.217000000    -7.895000000
C     1.109000000    -1.266000000    -6.770000000
C     0.662000000    -0.056000000    -6.283000000
H    -0.373000000     0.043000000    -5.965000000
O    -2.959000000     1.294000000    -8.491000000
H    -3.194000000     1.672000000    -7.644000000
H    -2.680000000     0.401000000    -8.286000000
O    -4.649000000    -2.117000000    -7.207000000
H    -4.298000000    -2.885000000    -7.658000000
H    -4.160000000    -2.078000000    -6.385000000
O    -8.771000000    -0.797000000    -3.248000000
H    -7.856000000    -1.075000000    -3.216000000
H    -8.730000000     0.145000000    -3.413000000
O    -6.170000000     0.486000000    -3.590000000
H    -6.418000000     0.236000000    -4.480000000
H    -5.242000000     0.714000000    -3.655000000
O    -8.609000000     3.417000000    -1.896000000
H    -8.728000000     4.357000000    -1.757000000
H    -8.560000000     3.050000000    -1.013000000
O    -6.003000000     1.436000000    -6.833000000
H    -6.630000000     1.418000000    -7.557000000
H    -6.101000000     0.583000000    -6.410000000
O    -6.783000000    -1.198000000    -5.761000000
H    -7.564000000    -1.467000000    -6.246000000
H    -6.060000000    -1.637000000    -6.209000000
O    -2.544000000     2.409000000    -5.964000000
H    -2.744000000     1.774000000    -5.276000000
H    -3.079000000     3.172000000    -5.748000000
O    -3.593000000    -1.537000000    -4.728000000
H    -3.543000000    -0.594000000    -4.570000000
H    -2.733000000    -1.868000000    -4.468000000
O    -6.902000000     0.561000000    -0.858000000
H    -6.820000000     0.831000000    -1.772000000
H    -6.123000000     0.029000000    -0.694000000
O    -3.209000000     4.793000000    -4.233000000
H    -4.100000000     4.448000000    -4.183000000
H    -2.816000000     4.564000000    -3.391000000
O    -7.240000000     6.281000000    -2.491000000
H    -6.902000000     6.715000000    -1.707000000
H    -6.637000000     5.553000000    -2.641000000
O    -2.684000000     5.733000000    -7.113000000
H    -2.589000000     5.889000000    -6.174000000
H    -3.464000000     5.183000000    -7.187000000
O    -7.129000000     5.061000000     1.356000000
H    -6.552000000     4.421000000     0.941000000
H    -6.536000000     5.658000000     1.813000000
O    -6.023000000     3.010000000     0.008000000
H    -6.393000000     2.142000000    -0.153000000
H    -5.612000000     3.253000000    -0.821000000
O    -9.406000000     0.277000000    -0.184000000
H    -8.533000000     0.301000000    -0.575000000
H    -9.247000000     0.199000000     0.756000000
O    -4.944000000     4.087000000    -7.603000000
H    -5.302000000     3.299000000    -7.193000000
H    -5.365000000     4.123000000    -8.462000000
O    -8.792000000     2.375000000    -4.427000000
H    -8.831000000     3.126000000    -5.019000000
H    -9.012000000     2.735000000    -3.568000000
O    -6.071000000     3.893000000    -3.332000000
H    -6.791000000     3.270000000    -3.432000000
H    -5.339000000     3.364000000    -3.013000000
