201
-1242.77906
C    -4.325000000    -1.862000000    -2.993000000
H    -4.069000000    -1.379000000    -3.932000000
C    -4.526000000    -1.038000000    -1.828000000
C    -5.074000000    -1.631000000    -0.663000000
H    -5.442000000    -1.017000000     0.155000000
C    -4.096000000     0.437000000    -1.786000000
O    -4.166000000     0.997000000    -3.155000000
H    -3.024000000     0.506000000    -1.552000000
O    -4.949000000     1.150000000    -0.835000000
C    -4.332000000     2.063000000     0.005000000
C    -4.046000000     1.615000000     1.237000000
H    -4.092000000     0.562000000     1.503000000
C    -3.363000000     2.425000000     2.118000000
O    -3.040000000     1.852000000     3.348000000
C    -2.892000000     3.706000000     1.698000000
C    -2.068000000     4.541000000     2.688000000
H    -2.223000000     5.606000000     2.507000000
C    -0.585000000     4.107000000     2.622000000
C     0.346000000     4.731000000     1.754000000
H    -0.036000000     5.480000000     1.066000000
H    -2.499000000     4.335000000     3.670000000
C    -3.039000000     4.070000000     0.360000000
H    -2.891000000     5.082000000    -0.007000000
C    -3.794000000     3.243000000    -0.461000000
C    -3.925000000     3.583000000    -1.905000000
H    -3.856000000     4.663000000    -2.052000000
H    -4.934000000     3.356000000    -2.258000000
C    -2.931000000     3.029000000    -2.847000000
C    -1.773000000     3.731000000    -2.963000000
H    -1.680000000     4.722000000    -2.526000000
C    -3.127000000     1.817000000    -3.518000000
C    -1.990000000     1.258000000    -4.123000000
H    -2.041000000     0.274000000    -4.584000000
C    -0.762000000     1.975000000    -4.275000000
O     0.239000000     1.331000000    -4.915000000
C     1.269000000     0.772000000    -4.139000000
C     1.717000000    -0.648000000    -4.543000000
C     3.053000000    -0.950000000    -4.345000000
H     3.814000000    -0.285000000    -3.946000000
C     0.823000000    -1.628000000    -4.944000000
H    -0.243000000    -1.420000000    -4.984000000
O     2.373000000     1.682000000    -3.991000000
H     0.796000000     0.654000000    -3.153000000
C    -0.688000000     3.183000000    -3.681000000
C     0.615000000     4.002000000    -3.711000000
H     0.385000000     5.069000000    -3.677000000
H     0.982000000     3.829000000    -4.725000000
C     1.588000000     3.503000000    -2.686000000
C     1.722000000     4.284000000    -1.565000000
H     1.207000000     5.232000000    -1.435000000
C     2.407000000     2.371000000    -2.813000000
C     3.228000000     1.892000000    -1.807000000
H     3.748000000     0.943000000    -1.916000000
C     3.389000000     2.728000000    -0.720000000
O     4.184000000     2.276000000     0.330000000
C     3.519000000     1.662000000     1.421000000
C     4.264000000     0.348000000     1.793000000
C     4.822000000    -0.445000000     0.760000000
H     4.822000000    -0.044000000    -0.251000000
C     4.142000000    -0.206000000     3.092000000
H     3.740000000     0.440000000     3.868000000
O     3.394000000     2.667000000     2.489000000
H     2.505000000     1.358000000     1.122000000
C     2.677000000     3.883000000    -0.574000000
C     2.770000000     4.771000000     0.657000000
H     2.518000000     5.824000000     0.513000000
H     3.838000000     4.663000000     0.857000000
C     1.738000000     4.350000000     1.745000000
C     2.126000000     3.298000000     2.563000000
C     1.270000000     2.745000000     3.457000000
H     1.626000000     1.939000000     4.093000000
C    -0.071000000     3.133000000     3.494000000
O    -0.931000000     2.472000000     4.324000000
C    -1.653000000     1.470000000     3.662000000
H    -1.196000000     1.217000000     2.694000000
C    -1.566000000     0.106000000     4.418000000
C    -2.391000000    -0.944000000     3.984000000
H    -3.002000000    -0.874000000     3.088000000
C    -0.628000000    -0.049000000     5.424000000
H    -0.004000000     0.716000000     5.881000000
C    -0.524000000    -1.300000000     6.024000000
O     0.384000000    -1.561000000     7.111000000
C    -1.352000000    -2.324000000     5.709000000
H    -1.312000000    -3.335000000     6.106000000
C    -2.223000000    -2.120000000     4.632000000
O    -2.862000000    -3.250000000     4.058000000
C    -4.119000000    -3.187000000     3.646000000
C    -4.335000000    -3.152000000     2.246000000
H    -3.437000000    -3.359000000     1.668000000
C    -5.179000000    -3.191000000     4.523000000
H    -4.974000000    -3.231000000     5.589000000
C    -6.491000000    -3.280000000     4.080000000
H    -7.351000000    -3.228000000     4.743000000
C    -6.713000000    -3.279000000     2.698000000
H    -7.703000000    -3.362000000     2.257000000
C    -5.662000000    -3.275000000     1.768000000
O    -5.986000000    -3.501000000     0.438000000
C    -5.221000000    -2.986000000    -0.642000000
C    -4.878000000    -3.834000000    -1.686000000
H    -5.128000000    -4.892000000    -1.665000000
C    -4.405000000    -3.237000000    -2.854000000
O    -4.165000000    -4.089000000    -3.927000000
C    -3.220000000    -3.883000000    -4.980000000
C    -1.881000000    -4.099000000    -4.693000000
H    -1.531000000    -4.545000000    -3.765000000
C    -3.656000000    -3.478000000    -6.286000000
H    -4.722000000    -3.362000000    -6.467000000
C    -2.696000000    -3.260000000    -7.279000000
H    -2.994000000    -2.930000000    -8.271000000
C    -1.343000000    -3.329000000    -6.937000000
H    -0.586000000    -3.068000000    -7.672000000
C    -0.928000000    -3.868000000    -5.666000000
O     0.456000000    -3.913000000    -5.408000000
C     1.255000000    -2.894000000    -5.177000000
C     2.589000000    -3.191000000    -4.985000000
H     2.923000000    -4.186000000    -5.266000000
C     3.542000000    -2.240000000    -4.535000000
O     4.921000000    -2.549000000    -4.497000000
C     5.719000000    -2.114000000    -3.496000000
C     5.606000000    -2.599000000    -2.179000000
H     4.750000000    -3.218000000    -1.920000000
C     6.740000000    -1.159000000    -3.687000000
H     6.907000000    -0.706000000    -4.661000000
C     7.584000000    -0.805000000    -2.622000000
H     8.334000000    -0.020000000    -2.667000000
C     7.342000000    -1.201000000    -1.342000000
H     7.927000000    -0.806000000    -0.515000000
C     6.334000000    -2.146000000    -1.109000000
O     5.957000000    -2.451000000     0.131000000
C     5.403000000    -1.646000000     1.121000000
C     5.365000000    -2.080000000     2.411000000
H     5.990000000    -2.925000000     2.688000000
C     4.671000000    -1.431000000     3.433000000
O     4.645000000    -1.979000000     4.751000000
C     3.899000000    -1.584000000     5.853000000
C     4.526000000    -0.903000000     6.885000000
H     5.524000000    -0.508000000     6.714000000
C     3.810000000    -0.609000000     8.064000000
H     4.224000000    -0.048000000     8.898000000
C     2.484000000    -0.813000000     8.080000000
H     1.862000000    -0.594000000     8.944000000
C     1.775000000    -1.365000000     7.031000000
C     2.486000000    -1.736000000     5.839000000
H     1.960000000    -2.125000000     4.971000000
O     5.686000000    -5.501000000    -0.311000000
H     6.205000000    -6.303000000    -0.378000000
H     6.305000000    -4.841000000     0.000000000
O     2.583000000    -8.010000000    -5.594000000
H     2.090000000    -8.767000000    -5.911000000
H     1.915000000    -7.414000000    -5.256000000
O     4.166000000    -9.146000000    -3.457000000
H     3.905000000    -8.486000000    -2.815000000
H     3.872000000    -8.794000000    -4.296000000
O    -4.077000000    -7.226000000     2.342000000
H    -4.438000000    -7.249000000     1.456000000
H    -3.375000000    -6.577000000     2.298000000
O    -2.714000000    -6.671000000    -2.103000000
H    -2.534000000    -7.563000000    -1.804000000
H    -1.994000000    -6.150000000    -1.749000000
O    -4.805000000    -8.057000000    -0.404000000
H    -5.664000000    -7.638000000    -0.456000000
H    -4.228000000    -7.483000000    -0.908000000
O    -3.293000000    -7.200000000    -4.608000000
H    -2.991000000    -8.040000000    -4.263000000
H    -3.201000000    -6.593000000    -3.873000000
O     3.169000000    -4.048000000     0.686000000
H     2.428000000    -4.389000000     0.186000000
H     3.941000000    -4.392000000     0.236000000
O     5.010000000    -5.775000000    -3.921000000
H     5.342000000    -4.893000000    -4.087000000
H     4.316000000    -5.652000000    -3.273000000
O    -1.985000000    -9.129000000    -1.171000000
H    -1.139000000    -8.724000000    -0.982000000
H    -2.016000000    -9.897000000    -0.600000000
O    -1.891000000    -5.808000000     1.237000000
H    -1.309000000    -5.524000000     1.941000000
H    -1.335000000    -5.824000000     0.458000000
O     0.306000000    -7.649000000    -0.926000000
H     0.270000000    -6.693000000    -0.937000000
H     1.008000000    -7.856000000    -0.309000000
O     0.159000000    -6.939000000    -4.009000000
H    -0.521000000    -6.406000000    -4.422000000
H     0.213000000    -6.607000000    -3.113000000
O     1.156000000    -2.674000000     2.039000000
H     2.049000000    -2.987000000     1.894000000
H     0.990000000    -2.076000000     1.309000000
O     2.200000000    -8.633000000     1.150000000
H     2.703000000    -9.121000000     0.498000000
H     1.757000000    -9.307000000     1.665000000
O     0.503000000    -9.448000000    -2.983000000
H     0.470000000    -9.021000000    -2.127000000
H     0.300000000    -8.750000000    -3.607000000
O     3.300000000    -6.438000000    -1.996000000
H     3.943000000    -6.421000000    -1.287000000
H     2.568000000    -5.915000000    -1.668000000
O    -0.398000000    -4.524000000     3.482000000
H     0.183000000    -3.864000000     3.104000000
H    -1.232000000    -4.070000000     3.601000000
O     3.392000000    -4.981000000     3.619000000
H     3.335000000    -4.589000000     2.748000000
H     2.736000000    -5.678000000     3.611000000
