201
-1244.36315
C    -4.667000000    -1.290000000     2.173000000
H    -4.427000000    -1.011000000     3.195000000
C    -3.848000000    -2.183000000     1.422000000
C    -4.284000000    -2.536000000     0.142000000
H    -3.603000000    -3.198000000    -0.386000000
C    -2.516000000    -2.727000000     1.882000000
O    -2.483000000    -2.765000000     3.309000000
H    -1.741000000    -2.056000000     1.483000000
O    -2.296000000    -4.063000000     1.359000000
C    -1.035000000    -4.416000000     0.973000000
C    -0.835000000    -4.281000000    -0.410000000
H    -1.629000000    -4.070000000    -1.122000000
C     0.468000000    -4.350000000    -0.879000000
O     0.639000000    -4.186000000    -2.223000000
C     1.534000000    -4.597000000    -0.010000000
C     3.026000000    -4.678000000    -0.490000000
H     3.655000000    -5.146000000     0.271000000
C     3.606000000    -3.264000000    -0.824000000
C     4.259000000    -2.625000000     0.251000000
H     4.260000000    -3.094000000     1.231000000
H     3.051000000    -5.405000000    -1.304000000
C     1.319000000    -4.842000000     1.349000000
H     2.184000000    -5.042000000     1.975000000
C    -0.012000000    -4.638000000     1.855000000
C    -0.113000000    -4.418000000     3.367000000
H     0.708000000    -4.984000000     3.813000000
H    -1.053000000    -4.829000000     3.739000000
C    -0.103000000    -2.920000000     3.727000000
C     1.028000000    -2.376000000     4.261000000
H     1.928000000    -2.982000000     4.182000000
C    -1.294000000    -2.222000000     3.746000000
C    -1.375000000    -0.955000000     4.356000000
H    -2.330000000    -0.441000000     4.424000000
C    -0.191000000    -0.354000000     4.727000000
O    -0.150000000     1.032000000     4.904000000
C     0.257000000     1.882000000     3.782000000
C    -0.669000000     3.124000000     3.557000000
C    -0.170000000     4.245000000     2.841000000
H     0.905000000     4.369000000     2.746000000
C    -2.022000000     3.070000000     3.863000000
H    -2.444000000     2.198000000     4.357000000
O     1.615000000     2.367000000     4.066000000
H     0.217000000     1.328000000     2.832000000
C     1.027000000    -1.033000000     4.775000000
C     2.328000000    -0.372000000     5.125000000
H     3.050000000    -1.076000000     5.544000000
H     2.109000000     0.318000000     5.943000000
C     2.963000000     0.382000000     3.926000000
C     3.953000000    -0.281000000     3.228000000
H     4.118000000    -1.322000000     3.492000000
C     2.691000000     1.669000000     3.553000000
C     3.317000000     2.272000000     2.492000000
H     2.983000000     3.254000000     2.166000000
C     4.199000000     1.499000000     1.646000000
O     4.666000000     2.126000000     0.475000000
C     4.117000000     1.598000000    -0.753000000
C     3.663000000     2.623000000    -1.791000000
C     2.937000000     3.749000000    -1.389000000
H     2.741000000     3.872000000    -0.327000000
C     3.886000000     2.404000000    -3.191000000
H     4.459000000     1.592000000    -3.631000000
O     5.039000000     0.698000000    -1.370000000
H     3.207000000     1.042000000    -0.486000000
C     4.521000000     0.208000000     2.087000000
C     5.463000000    -0.659000000     1.294000000
H     5.951000000    -1.430000000     1.892000000
H     6.248000000    -0.021000000     0.882000000
C     4.842000000    -1.328000000     0.081000000
C     4.692000000    -0.615000000    -1.164000000
C     3.934000000    -1.224000000    -2.211000000
H     3.662000000    -0.563000000    -3.030000000
C     3.432000000    -2.553000000    -2.015000000
O     2.538000000    -2.987000000    -2.976000000
C     1.133000000    -2.896000000    -2.698000000
H     0.934000000    -2.238000000    -1.840000000
C     0.254000000    -2.482000000    -3.906000000
C    -1.019000000    -2.992000000    -4.102000000
H    -1.224000000    -3.949000000    -3.630000000
C     0.563000000    -1.458000000    -4.749000000
H     1.397000000    -0.813000000    -4.481000000
C    -0.225000000    -0.981000000    -5.799000000
O     0.129000000     0.133000000    -6.538000000
C    -1.499000000    -1.577000000    -5.946000000
H    -2.068000000    -1.228000000    -6.803000000
C    -1.875000000    -2.611000000    -5.128000000
O    -3.008000000    -3.335000000    -5.357000000
C    -3.836000000    -3.786000000    -4.361000000
C    -4.478000000    -2.862000000    -3.592000000
H    -4.408000000    -1.795000000    -3.788000000
C    -4.007000000    -5.131000000    -4.028000000
H    -3.436000000    -5.894000000    -4.551000000
C    -4.801000000    -5.547000000    -2.977000000
H    -4.927000000    -6.612000000    -2.795000000
C    -5.524000000    -4.614000000    -2.214000000
H    -6.116000000    -4.810000000    -1.324000000
C    -5.254000000    -3.245000000    -2.476000000
O    -5.877000000    -2.282000000    -1.703000000
C    -5.450000000    -1.940000000    -0.442000000
C    -6.206000000    -1.073000000     0.363000000
H    -7.103000000    -0.597000000    -0.025000000
C    -5.812000000    -0.699000000     1.635000000
O    -6.630000000     0.189000000     2.342000000
C    -6.316000000     1.115000000     3.304000000
C    -5.445000000     2.164000000     3.021000000
H    -4.922000000     2.250000000     2.071000000
C    -7.087000000     1.076000000     4.416000000
H    -7.724000000     0.246000000     4.710000000
C    -6.915000000     2.061000000     5.397000000
H    -7.504000000     2.029000000     6.310000000
C    -5.973000000     3.094000000     5.208000000
H    -5.781000000     3.906000000     5.906000000
C    -5.124000000     3.110000000     4.057000000
O    -4.184000000     4.136000000     3.806000000
C    -2.890000000     4.076000000     3.440000000
C    -2.403000000     5.171000000     2.832000000
H    -3.128000000     5.909000000     2.499000000
C    -1.051000000     5.322000000     2.548000000
O    -0.612000000     6.444000000     2.002000000
C     0.512000000     6.614000000     1.284000000
C     0.486000000     6.129000000     0.005000000
H    -0.502000000     5.972000000    -0.420000000
C     1.736000000     7.010000000     1.898000000
H     1.878000000     7.109000000     2.971000000
C     2.895000000     6.988000000     1.163000000
H     3.855000000     7.309000000     1.558000000
C     2.840000000     6.610000000    -0.128000000
H     3.785000000     6.534000000    -0.660000000
C     1.632000000     6.155000000    -0.741000000
O     1.632000000     5.677000000    -2.029000000
C     2.464000000     4.688000000    -2.373000000
C     2.749000000     4.455000000    -3.715000000
H     2.314000000     5.178000000    -4.401000000
C     3.504000000     3.358000000    -4.124000000
O     3.750000000     3.171000000    -5.437000000
C     3.247000000     2.056000000    -6.110000000
C     4.205000000     1.223000000    -6.673000000
H     5.256000000     1.473000000    -6.552000000
C     3.768000000     0.119000000    -7.387000000
H     4.500000000    -0.537000000    -7.852000000
C     2.405000000    -0.175000000    -7.396000000
H     2.061000000    -1.120000000    -7.809000000
C     1.458000000     0.577000000    -6.742000000
C     1.852000000     1.704000000    -6.118000000
H     1.036000000     2.205000000    -5.604000000
O    -1.630000000     9.069000000    -0.351000000
H    -1.438000000     9.881000000    -0.818000000
H    -1.988000000     8.485000000    -1.020000000
O    -5.143000000     4.305000000    -2.055000000
H    -4.237000000     4.269000000    -1.750000000
H    -5.093000000     4.073000000    -2.983000000
O    -4.602000000     6.758000000     0.178000000
H    -4.785000000     7.114000000     1.048000000
H    -4.999000000     5.887000000     0.188000000
O    -1.943000000     5.739000000    -6.654000000
H    -2.621000000     6.414000000    -6.681000000
H    -1.508000000     5.868000000    -5.811000000
O    -2.970000000     6.997000000    -1.778000000
H    -2.590000000     6.125000000    -1.888000000
H    -3.683000000     6.870000000    -1.152000000
O    -7.318000000     6.400000000    -2.595000000
H    -6.608000000     5.865000000    -2.241000000
H    -8.038000000     5.783000000    -2.730000000
O    -2.739000000    -0.101000000    -2.592000000
H    -2.448000000     0.318000000    -3.402000000
H    -2.102000000     0.181000000    -1.935000000
O    -3.940000000     3.623000000    -4.789000000
H    -3.760000000     4.300000000    -5.442000000
H    -3.129000000     3.556000000    -4.285000000
O    -4.053000000     7.193000000    -6.085000000
H    -4.914000000     6.994000000    -6.453000000
H    -4.234000000     7.794000000    -5.362000000
O    -5.268000000     0.970000000    -2.365000000
H    -4.962000000     1.872000000    -2.274000000
H    -4.468000000     0.455000000    -2.468000000
O    -0.048000000     6.039000000    -8.684000000
H    -0.286000000     5.413000000    -9.368000000
H    -0.383000000     5.651000000    -7.876000000
O    -1.582000000     8.720000000    -3.523000000
H    -1.364000000     7.854000000    -3.867000000
H    -2.391000000     8.585000000    -3.029000000
O    -6.956000000     3.593000000    -0.123000000
H    -7.460000000     2.848000000    -0.449000000
H    -6.417000000     3.862000000    -0.867000000
O    -0.478000000     6.174000000    -4.202000000
H     0.100000000     6.265000000    -3.444000000
H    -0.757000000     5.259000000    -4.181000000
O    -3.653000000     1.385000000    -7.944000000
H    -3.736000000     2.325000000    -8.105000000
H    -4.148000000     1.235000000    -7.139000000
O    -1.657000000     1.308000000    -4.932000000
H    -1.388000000     2.201000000    -4.717000000
H    -1.023000000     1.018000000    -5.587000000
O    -7.500000000     0.159000000    -3.590000000
H    -6.702000000     0.124000000    -3.062000000
H    -7.690000000     1.093000000    -3.675000000
O    -4.377000000     0.984000000    -5.389000000
H    -4.466000000     1.876000000    -5.054000000
H    -3.448000000     0.780000000    -5.283000000
O    -4.485000000     4.020000000    -8.188000000
H    -3.815000000     4.608000000    -7.839000000
H    -5.271000000     4.563000000    -8.252000000
