201
-1243.91278
C    -4.114000000    -2.110000000     2.542000000
H    -3.683000000    -1.182000000     2.908000000
C    -3.207000000    -3.123000000     2.272000000
C    -3.641000000    -4.062000000     1.357000000
H    -2.966000000    -4.822000000     0.974000000
C    -1.783000000    -2.863000000     2.687000000
O    -1.679000000    -2.365000000     4.096000000
H    -1.344000000    -2.107000000     2.019000000
O    -1.126000000    -4.133000000     2.469000000
C     0.183000000    -4.224000000     1.967000000
C     0.204000000    -4.425000000     0.588000000
H    -0.722000000    -4.603000000     0.047000000
C     1.408000000    -4.556000000    -0.009000000
O     1.361000000    -4.506000000    -1.378000000
C     2.575000000    -4.172000000     0.685000000
C     3.851000000    -3.911000000    -0.179000000
H     4.771000000    -4.127000000     0.368000000
C     3.979000000    -2.475000000    -0.757000000
C     4.769000000    -1.613000000     0.018000000
H     5.141000000    -1.935000000     0.987000000
H     3.865000000    -4.578000000    -1.043000000
C     2.502000000    -3.900000000     2.065000000
H     3.394000000    -3.522000000     2.560000000
C     1.252000000    -3.924000000     2.763000000
C     1.056000000    -3.488000000     4.217000000
H     1.826000000    -3.750000000     4.945000000
H     0.221000000    -4.098000000     4.567000000
C     0.683000000    -2.007000000     4.387000000
C     1.746000000    -1.160000000     4.564000000
H     2.730000000    -1.621000000     4.581000000
C    -0.589000000    -1.535000000     4.321000000
C    -0.814000000    -0.166000000     4.359000000
H    -1.829000000     0.164000000     4.157000000
C     0.203000000     0.690000000     4.658000000
O    -0.089000000     2.052000000     4.526000000
C     0.151000000     2.740000000     3.296000000
C    -0.949000000     3.673000000     2.927000000
C    -0.702000000     4.861000000     2.251000000
H     0.317000000     5.206000000     2.099000000
C    -2.299000000     3.329000000     3.062000000
H    -2.602000000     2.437000000     3.605000000
O     1.361000000     3.428000000     3.366000000
H     0.311000000     2.000000000     2.498000000
C     1.517000000     0.203000000     4.680000000
C     2.725000000     1.231000000     4.664000000
H     3.521000000     0.719000000     5.208000000
H     2.440000000     2.062000000     5.313000000
C     3.106000000     1.721000000     3.304000000
C     4.099000000     1.082000000     2.597000000
H     4.622000000     0.201000000     2.961000000
C     2.445000000     2.835000000     2.758000000
C     2.903000000     3.353000000     1.488000000
H     2.388000000     4.198000000     1.039000000
C     3.907000000     2.662000000     0.815000000
O     4.009000000     3.095000000    -0.473000000
C     3.568000000     2.307000000    -1.581000000
C     2.825000000     3.126000000    -2.580000000
C     2.293000000     4.404000000    -2.253000000
H     2.479000000     4.695000000    -1.223000000
C     2.685000000     2.678000000    -3.884000000
H     3.075000000     1.726000000    -4.236000000
O     4.570000000     1.366000000    -2.167000000
H     2.813000000     1.592000000    -1.225000000
C     4.497000000     1.508000000     1.307000000
C     5.516000000     0.719000000     0.465000000
H     6.171000000     0.138000000     1.119000000
H     6.031000000     1.459000000    -0.151000000
C     4.920000000    -0.311000000    -0.420000000
C     4.481000000     0.055000000    -1.693000000
C     3.716000000    -0.788000000    -2.465000000
H     3.216000000    -0.432000000    -3.362000000
C     3.451000000    -2.057000000    -1.929000000
O     2.612000000    -2.888000000    -2.599000000
C     1.323000000    -3.259000000    -2.051000000
H     1.024000000    -2.460000000    -1.356000000
C     0.164000000    -3.153000000    -3.077000000
C    -0.976000000    -4.026000000    -3.128000000
H    -0.977000000    -4.858000000    -2.429000000
C     0.196000000    -2.152000000    -4.092000000
H     0.963000000    -1.385000000    -4.158000000
C    -0.928000000    -2.021000000    -4.949000000
O    -0.942000000    -0.955000000    -5.788000000
C    -2.014000000    -2.923000000    -4.965000000
H    -2.798000000    -2.784000000    -5.705000000
C    -2.042000000    -3.930000000    -3.989000000
O    -3.178000000    -4.733000000    -4.020000000
C    -3.622000000    -5.460000000    -2.950000000
C    -4.241000000    -4.936000000    -1.839000000
H    -4.326000000    -3.852000000    -1.837000000
C    -3.498000000    -6.865000000    -3.071000000
H    -2.952000000    -7.344000000    -3.880000000
C    -3.877000000    -7.665000000    -1.976000000
H    -3.738000000    -8.740000000    -2.045000000
C    -4.557000000    -7.127000000    -0.881000000
H    -4.991000000    -7.881000000    -0.230000000
C    -4.770000000    -5.738000000    -0.826000000
O    -5.460000000    -5.182000000     0.228000000
C    -4.942000000    -4.146000000     1.005000000
C    -5.786000000    -3.126000000     1.252000000
H    -6.788000000    -2.980000000     0.856000000
C    -5.402000000    -2.020000000     1.989000000
O    -6.167000000    -0.866000000     2.246000000
C    -5.723000000     0.220000000     3.025000000
C    -5.301000000     1.394000000     2.445000000
H    -5.169000000     1.389000000     1.366000000
C    -5.966000000     0.172000000     4.393000000
H    -6.389000000    -0.713000000     4.860000000
C    -5.737000000     1.336000000     5.181000000
H    -5.943000000     1.301000000     6.248000000
C    -5.326000000     2.532000000     4.554000000
H    -5.067000000     3.414000000     5.135000000
C    -5.035000000     2.484000000     3.195000000
O    -4.616000000     3.572000000     2.514000000
C    -3.366000000     4.105000000     2.571000000
C    -3.042000000     5.311000000     1.775000000
H    -3.812000000     5.882000000     1.262000000
C    -1.685000000     5.652000000     1.627000000
O    -1.353000000     6.866000000     1.159000000
C    -0.213000000     7.171000000     0.414000000
C    -0.029000000     6.651000000    -0.852000000
H    -0.730000000     5.983000000    -1.346000000
C     0.752000000     7.965000000     0.934000000
H     0.623000000     8.195000000     1.989000000
C     1.916000000     8.266000000     0.201000000
H     2.626000000     9.011000000     0.552000000
C     2.119000000     7.733000000    -1.062000000
H     2.986000000     8.026000000    -1.649000000
C     1.130000000     6.905000000    -1.601000000
O     1.237000000     6.438000000    -2.922000000
C     1.664000000     5.183000000    -3.230000000
C     1.490000000     4.692000000    -4.515000000
H     1.139000000     5.384000000    -5.276000000
C     1.972000000     3.412000000    -4.821000000
O     1.830000000     2.943000000    -6.175000000
C     1.693000000     1.622000000    -6.478000000
C     2.605000000     0.918000000    -7.208000000
H     3.543000000     1.374000000    -7.515000000
C     2.348000000    -0.454000000    -7.422000000
H     3.096000000    -1.100000000    -7.874000000
C     1.176000000    -1.020000000    -6.925000000
H     1.100000000    -2.084000000    -7.133000000
C     0.230000000    -0.343000000    -6.220000000
C     0.478000000     1.011000000    -5.975000000
H    -0.224000000     1.613000000    -5.405000000
O    -4.405000000     2.583000000    -9.384000000
H    -3.675000000     3.174000000    -9.569000000
H    -4.219000000     2.239000000    -8.511000000
O    -7.592000000     0.426000000    -6.120000000
H    -6.749000000     0.112000000    -6.448000000
H    -7.375000000     1.207000000    -5.611000000
O    -3.759000000     4.835000000    -3.215000000
H    -3.988000000     3.924000000    -3.031000000
H    -4.431000000     5.347000000    -2.764000000
O    -5.605000000     6.102000000    -1.607000000
H    -5.643000000     6.362000000    -0.687000000
H    -6.083000000     5.274000000    -1.642000000
O    -3.020000000    -1.367000000    -0.757000000
H    -2.768000000    -1.493000000    -1.672000000
H    -2.556000000    -0.575000000    -0.487000000
O    -7.266000000     5.241000000    -4.565000000
H    -7.172000000     4.369000000    -4.949000000
H    -6.386000000     5.617000000    -4.608000000
O    -5.858000000     3.423000000    -1.232000000
H    -5.168000000     2.906000000    -1.648000000
H    -6.528000000     2.781000000    -0.996000000
O    -8.313000000    -0.766000000    -2.506000000
H    -7.396000000    -0.946000000    -2.298000000
H    -8.351000000     0.183000000    -2.622000000
O    -4.246000000     5.615000000    -6.681000000
H    -3.662000000     5.458000000    -5.939000000
H    -3.831000000     6.330000000    -7.165000000
O    -5.573000000    -1.261000000    -2.009000000
H    -4.903000000    -1.507000000    -1.371000000
H    -5.104000000    -1.211000000    -2.842000000
O    -6.147000000     3.642000000    -6.579000000
H    -5.557000000     4.395000000    -6.580000000
H    -5.565000000     2.882000000    -6.575000000
O    -2.680000000     7.473000000    -2.507000000
H    -2.982000000     8.006000000    -3.243000000
H    -3.099000000     6.623000000    -2.641000000
O    -1.760000000     4.215000000    -5.257000000
H    -1.392000000     5.045000000    -4.954000000
H    -2.362000000     3.951000000    -4.561000000
O    -3.112000000     2.221000000    -6.677000000
H    -3.317000000     1.749000000    -5.870000000
H    -2.687000000     3.026000000    -6.383000000
O    -4.339000000    -1.053000000    -4.589000000
H    -4.687000000    -1.073000000    -5.481000000
H    -3.814000000    -0.254000000    -4.554000000
O    -2.481000000    -0.152000000    -8.107000000
H    -2.718000000     0.476000000    -7.424000000
H    -1.772000000     0.274000000    -8.588000000
O    -6.926000000     0.784000000    -0.603000000
H    -7.348000000     0.105000000    -0.076000000
H    -6.283000000     0.312000000    -1.131000000
O    -5.256000000    -1.042000000    -7.189000000
H    -5.792000000    -1.764000000    -7.518000000
H    -4.606000000    -0.895000000    -7.876000000
O    -6.699000000     1.994000000    -3.968000000
H    -6.779000000     2.599000000    -3.231000000
H    -5.787000000     1.701000000    -3.940000000
