201
-1236.51032
C    -4.372000000    -1.421000000     2.728000000
H    -3.875000000    -0.867000000     3.520000000
C    -3.739000000    -2.572000000     2.170000000
C    -4.385000000    -3.146000000     1.104000000
H    -3.900000000    -3.962000000     0.575000000
C    -2.281000000    -2.812000000     2.520000000
O    -1.883000000    -2.548000000     3.806000000
H    -1.722000000    -2.116000000     1.878000000
O    -1.828000000    -4.147000000     2.252000000
C    -0.603000000    -4.379000000     1.534000000
C    -0.639000000    -4.506000000     0.145000000
H    -1.559000000    -4.419000000    -0.428000000
C     0.575000000    -4.640000000    -0.538000000
O     0.452000000    -4.536000000    -1.890000000
C     1.794000000    -4.598000000     0.153000000
C     3.043000000    -4.635000000    -0.725000000
H     3.874000000    -5.147000000    -0.235000000
C     3.444000000    -3.194000000    -1.109000000
C     4.234000000    -2.442000000    -0.240000000
H     4.660000000    -2.831000000     0.682000000
H     2.815000000    -5.062000000    -1.704000000
C     1.780000000    -4.613000000     1.572000000
H     2.695000000    -4.864000000     2.102000000
C     0.590000000    -4.377000000     2.209000000
C     0.666000000    -4.211000000     3.693000000
H     1.553000000    -4.633000000     4.171000000
H    -0.143000000    -4.822000000     4.099000000
C     0.604000000    -2.681000000     3.991000000
C     1.816000000    -1.958000000     4.225000000
H     2.812000000    -2.375000000     4.095000000
C    -0.644000000    -1.982000000     4.134000000
C    -0.634000000    -0.605000000     4.200000000
H    -1.609000000    -0.125000000     4.228000000
C     0.565000000     0.071000000     4.261000000
O     0.471000000     1.423000000     4.329000000
C     0.869000000     2.298000000     3.286000000
C    -0.098000000     3.445000000     3.150000000
C     0.298000000     4.762000000     2.853000000
H     1.342000000     4.983000000     2.648000000
C    -1.456000000     3.135000000     3.233000000
H    -1.768000000     2.136000000     3.527000000
O     2.179000000     2.821000000     3.490000000
H     0.845000000     1.663000000     2.389000000
C     1.798000000    -0.576000000     4.241000000
C     3.073000000     0.254000000     4.514000000
H     3.890000000    -0.426000000     4.762000000
H     3.056000000     0.988000000     5.322000000
C     3.522000000     0.880000000     3.235000000
C     4.406000000     0.074000000     2.443000000
H     4.665000000    -0.924000000     2.785000000
C     3.128000000     2.115000000     2.757000000
C     3.555000000     2.598000000     1.477000000
H     3.139000000     3.521000000     1.083000000
C     4.585000000     1.890000000     0.789000000
O     4.726000000     2.334000000    -0.531000000
C     3.909000000     1.726000000    -1.520000000
C     3.342000000     2.758000000    -2.515000000
C     2.917000000     3.958000000    -1.979000000
H     2.881000000     4.087000000    -0.901000000
C     3.135000000     2.485000000    -3.843000000
H     3.508000000     1.592000000    -4.338000000
O     4.639000000     0.658000000    -2.265000000
H     3.033000000     1.298000000    -1.010000000
C     4.942000000     0.593000000     1.210000000
C     5.725000000    -0.393000000     0.325000000
H     6.422000000    -1.061000000     0.835000000
H     6.206000000     0.150000000    -0.492000000
C     4.789000000    -1.177000000    -0.611000000
C     4.405000000    -0.631000000    -1.870000000
C     3.387000000    -1.285000000    -2.552000000
H     2.993000000    -0.751000000    -3.413000000
C     2.875000000    -2.507000000    -2.193000000
O     1.943000000    -3.073000000    -3.044000000
C     0.630000000    -3.266000000    -2.483000000
H     0.497000000    -2.488000000    -1.716000000
C    -0.406000000    -2.885000000    -3.570000000
C    -1.710000000    -3.472000000    -3.546000000
H    -1.807000000    -4.352000000    -2.915000000
C    -0.162000000    -1.793000000    -4.369000000
H     0.856000000    -1.466000000    -4.563000000
C    -1.177000000    -1.286000000    -5.229000000
O    -0.964000000    -0.280000000    -6.177000000
C    -2.425000000    -1.908000000    -5.203000000
H    -3.148000000    -1.556000000    -5.934000000
C    -2.700000000    -2.980000000    -4.315000000
O    -4.039000000    -3.496000000    -4.308000000
C    -4.507000000    -4.203000000    -3.276000000
C    -5.005000000    -3.573000000    -2.124000000
H    -4.908000000    -2.493000000    -2.045000000
C    -4.789000000    -5.467000000    -3.571000000
H    -4.307000000    -5.942000000    -4.422000000
C    -5.554000000    -6.173000000    -2.708000000
H    -5.913000000    -7.146000000    -3.036000000
C    -5.966000000    -5.647000000    -1.446000000
H    -6.589000000    -6.125000000    -0.694000000
C    -5.768000000    -4.281000000    -1.234000000
O    -6.322000000    -3.536000000    -0.196000000
C    -5.646000000    -2.800000000     0.786000000
C    -6.327000000    -1.820000000     1.482000000
H    -7.337000000    -1.554000000     1.179000000
C    -5.648000000    -1.039000000     2.395000000
O    -6.339000000    -0.024000000     3.026000000
C    -5.696000000     0.913000000     3.802000000
C    -5.171000000     2.099000000     3.272000000
H    -5.149000000     2.238000000     2.194000000
C    -5.526000000     0.614000000     5.173000000
H    -5.839000000    -0.361000000     5.537000000
C    -4.974000000     1.598000000     6.033000000
H    -5.036000000     1.395000000     7.100000000
C    -4.329000000     2.653000000     5.420000000
H    -3.882000000     3.437000000     6.026000000
C    -4.367000000     2.868000000     4.036000000
O    -3.753000000     3.994000000     3.489000000
C    -2.382000000     4.159000000     3.211000000
C    -1.994000000     5.390000000     2.814000000
H    -2.774000000     6.141000000     2.723000000
C    -0.687000000     5.710000000     2.537000000
O    -0.402000000     6.900000000     2.003000000
C     0.692000000     6.997000000     1.169000000
C     0.662000000     6.392000000    -0.068000000
H    -0.171000000     5.784000000    -0.412000000
C     1.782000000     7.809000000     1.577000000
H     1.838000000     8.221000000     2.581000000
C     2.865000000     8.005000000     0.650000000
H     3.697000000     8.701000000     0.727000000
C     2.806000000     7.398000000    -0.646000000
H     3.585000000     7.661000000    -1.358000000
C     1.764000000     6.554000000    -0.989000000
O     1.549000000     6.039000000    -2.208000000
C     2.172000000     4.891000000    -2.687000000
C     2.060000000     4.677000000    -4.026000000
H     1.714000000     5.495000000    -4.653000000
C     2.480000000     3.450000000    -4.584000000
O     2.140000000     3.261000000    -5.937000000
C     1.798000000     1.994000000    -6.317000000
C     2.655000000     1.248000000    -7.193000000
H     3.552000000     1.596000000    -7.698000000
C     2.429000000    -0.107000000    -7.484000000
H     2.999000000    -0.644000000    -8.238000000
C     1.242000000    -0.667000000    -7.050000000
H     1.040000000    -1.702000000    -7.313000000
C     0.290000000     0.173000000    -6.452000000
C     0.569000000     1.414000000    -5.931000000
H    -0.194000000     1.954000000    -5.377000000
O    -7.586000000     4.843000000     1.893000000
H    -6.944000000     4.643000000     1.212000000
H    -8.002000000     4.002000000     2.085000000
O    -7.825000000     0.763000000    -2.965000000
H    -8.209000000     1.602000000    -3.222000000
H    -7.182000000     0.989000000    -2.293000000
O    -3.949000000     6.073000000     0.177000000
H    -3.620000000     5.203000000     0.400000000
H    -4.501000000     5.931000000    -0.592000000
O    -7.155000000     6.628000000    -1.371000000
H    -7.467000000     7.060000000    -0.576000000
H    -7.167000000     5.695000000    -1.157000000
O    -3.574000000    -0.079000000    -2.202000000
H    -3.555000000     0.422000000    -3.017000000
H    -2.667000000    -0.073000000    -1.896000000
O    -4.079000000     7.404000000    -2.696000000
H    -3.360000000     7.965000000    -2.404000000
H    -4.775000000     7.555000000    -2.057000000
O    -6.969000000     3.998000000    -0.657000000
H    -6.078000000     3.672000000    -0.780000000
H    -7.486000000     3.215000000    -0.465000000
O    -2.891000000     8.347000000    -5.080000000
H    -1.952000000     8.502000000    -4.976000000
H    -3.155000000     7.920000000    -4.265000000
O    -5.627000000     1.145000000    -1.071000000
H    -5.102000000     1.942000000    -1.004000000
H    -5.031000000     0.496000000    -1.446000000
O    -0.163000000     6.305000000    -6.412000000
H    -0.310000000     6.188000000    -5.474000000
H     0.770000000     6.125000000    -6.533000000
O    -7.379000000     5.110000000    -5.236000000
H    -8.098000000     4.479000000    -5.265000000
H    -6.837000000     4.823000000    -4.501000000
O    -2.925000000     8.658000000    -0.237000000
H    -2.249000000     8.601000000    -0.912000000
H    -2.918000000     7.798000000     0.183000000
O    -1.090000000     6.154000000    -3.317000000
H    -0.308000000     5.926000000    -2.814000000
H    -1.793000000     5.648000000    -2.910000000
O    -2.531000000     3.893000000    -6.055000000
H    -3.322000000     4.055000000    -5.541000000
H    -2.015000000     4.693000000    -5.961000000
O    -2.996000000     1.749000000    -4.010000000
H    -3.489000000     1.905000000    -4.816000000
H    -3.032000000     2.583000000    -3.542000000
O    -3.030000000     1.905000000    -7.466000000
H    -2.702000000     2.615000000    -6.915000000
H    -2.474000000     1.157000000    -7.250000000
O    -8.170000000     1.668000000     0.033000000
H    -8.403000000     1.718000000     0.960000000
H    -7.306000000     1.257000000     0.025000000
O    -5.142000000     1.741000000    -5.780000000
H    -5.923000000     1.409000000    -6.223000000
H    -4.454000000     1.699000000    -6.444000000
O    -4.210000000     4.781000000    -3.979000000
H    -4.086000000     5.701000000    -3.744000000
H    -3.812000000     4.294000000    -3.258000000
