201
-1245.79891
C    -3.591000000    -2.244000000     2.848000000
H    -3.386000000    -1.613000000     3.709000000
C    -2.536000000    -2.977000000     2.248000000
C    -2.834000000    -3.708000000     1.093000000
H    -2.085000000    -4.286000000     0.557000000
C    -1.136000000    -3.089000000     2.753000000
O    -0.998000000    -2.633000000     4.122000000
H    -0.664000000    -2.310000000     2.135000000
O    -0.303000000    -4.232000000     2.466000000
C     0.967000000    -4.066000000     1.972000000
C     0.979000000    -4.228000000     0.573000000
H     0.143000000    -4.594000000    -0.017000000
C     2.193000000    -3.988000000    -0.133000000
O     2.257000000    -4.043000000    -1.484000000
C     3.329000000    -3.491000000     0.575000000
C     4.625000000    -3.170000000    -0.192000000
H     5.467000000    -3.151000000     0.503000000
C     4.520000000    -1.752000000    -0.755000000
C     4.905000000    -0.644000000     0.035000000
H     5.123000000    -0.879000000     1.074000000
H     4.761000000    -3.971000000    -0.921000000
C     3.195000000    -3.291000000     1.957000000
H     4.069000000    -2.872000000     2.448000000
C     2.023000000    -3.605000000     2.640000000
C     1.855000000    -3.220000000     4.083000000
H     2.816000000    -3.402000000     4.568000000
H     1.229000000    -3.960000000     4.586000000
C     1.323000000    -1.843000000     4.405000000
C     2.226000000    -0.784000000     4.592000000
H     3.284000000    -1.013000000     4.499000000
C    -0.090000000    -1.604000000     4.397000000
C    -0.561000000    -0.355000000     4.625000000
H    -1.630000000    -0.164000000     4.595000000
C     0.367000000     0.725000000     4.726000000
O    -0.135000000     2.004000000     4.773000000
C    -0.346000000     2.583000000     3.390000000
C    -1.656000000     3.297000000     3.268000000
C    -1.677000000     4.363000000     2.335000000
H    -0.835000000     4.664000000     1.717000000
C    -2.835000000     2.889000000     3.845000000
H    -2.904000000     2.080000000     4.568000000
O     0.762000000     3.472000000     3.161000000
H    -0.430000000     1.831000000     2.591000000
C     1.747000000     0.503000000     4.600000000
C     2.687000000     1.698000000     4.577000000
H     3.592000000     1.267000000     5.011000000
H     2.329000000     2.508000000     5.215000000
C     2.867000000     2.201000000     3.177000000
C     3.943000000     1.718000000     2.371000000
H     4.462000000     0.887000000     2.841000000
C     1.986000000     3.089000000     2.632000000
C     2.274000000     3.668000000     1.385000000
H     1.516000000     4.347000000     1.002000000
C     3.365000000     3.271000000     0.581000000
O     3.453000000     3.660000000    -0.723000000
C     3.094000000     2.722000000    -1.720000000
C     2.120000000     3.404000000    -2.719000000
C     1.442000000     4.605000000    -2.462000000
H     1.748000000     5.147000000    -1.571000000
C     1.764000000     2.674000000    -3.919000000
H     2.096000000     1.654000000    -4.090000000
O     4.217000000     2.106000000    -2.297000000
H     2.569000000     1.858000000    -1.285000000
C     4.172000000     2.265000000     1.107000000
C     5.361000000     1.751000000     0.453000000
H     6.047000000     1.426000000     1.238000000
H     5.736000000     2.554000000    -0.185000000
C     4.921000000     0.620000000    -0.468000000
C     4.517000000     0.842000000    -1.780000000
C     4.021000000    -0.233000000    -2.479000000
H     3.477000000    -0.030000000    -3.398000000
C     4.070000000    -1.541000000    -2.012000000
O     3.385000000    -2.486000000    -2.750000000
C     2.016000000    -2.916000000    -2.358000000
H     1.547000000    -2.096000000    -1.794000000
C     1.151000000    -3.343000000    -3.554000000
C     0.094000000    -4.287000000    -3.411000000
H     0.038000000    -4.761000000    -2.434000000
C     1.231000000    -2.652000000    -4.789000000
H     1.871000000    -1.785000000    -4.935000000
C     0.385000000    -3.014000000    -5.885000000
O     0.345000000    -2.248000000    -7.048000000
C    -0.561000000    -4.048000000    -5.709000000
H    -1.234000000    -4.393000000    -6.490000000
C    -0.698000000    -4.632000000    -4.446000000
O    -1.682000000    -5.591000000    -4.294000000
C    -2.290000000    -5.866000000    -3.077000000
C    -2.916000000    -4.819000000    -2.364000000
H    -2.939000000    -3.779000000    -2.680000000
C    -2.306000000    -7.184000000    -2.578000000
H    -1.896000000    -7.949000000    -3.232000000
C    -3.035000000    -7.508000000    -1.437000000
H    -3.010000000    -8.565000000    -1.183000000
C    -3.724000000    -6.469000000    -0.749000000
H    -4.368000000    -6.721000000     0.089000000
C    -3.716000000    -5.161000000    -1.255000000
O    -4.472000000    -4.290000000    -0.613000000
C    -4.150000000    -3.737000000     0.597000000
C    -5.152000000    -3.028000000     1.197000000
H    -6.129000000    -3.016000000     0.720000000
C    -4.906000000    -2.266000000     2.314000000
O    -5.943000000    -1.607000000     2.845000000
C    -5.882000000    -0.625000000     3.828000000
C    -5.398000000     0.662000000     3.461000000
H    -5.221000000     0.830000000     2.402000000
C    -6.273000000    -0.874000000     5.132000000
H    -6.520000000    -1.903000000     5.377000000
C    -6.247000000     0.123000000     6.102000000
H    -6.508000000    -0.061000000     7.141000000
C    -5.812000000     1.415000000     5.754000000
H    -5.749000000     2.196000000     6.508000000
C    -5.407000000     1.707000000     4.439000000
O    -5.082000000     3.059000000     4.170000000
C    -4.028000000     3.528000000     3.431000000
C    -4.087000000     4.611000000     2.579000000
H    -5.010000000     5.168000000     2.440000000
C    -2.900000000     5.013000000     1.999000000
O    -2.842000000     5.982000000     1.021000000
C    -1.696000000     6.412000000     0.372000000
C    -1.540000000     6.011000000    -0.982000000
H    -2.129000000     5.227000000    -1.451000000
C    -0.836000000     7.356000000     0.886000000
H    -0.989000000     7.709000000     1.903000000
C     0.110000000     7.962000000     0.072000000
H     0.811000000     8.737000000     0.372000000
C     0.262000000     7.636000000    -1.268000000
H     0.977000000     8.147000000    -1.907000000
C    -0.546000000     6.613000000    -1.799000000
O    -0.325000000     6.144000000    -3.057000000
C     0.458000000     5.053000000    -3.303000000
C     0.102000000     4.334000000    -4.447000000
H    -0.682000000     4.773000000    -5.059000000
C     0.686000000     3.154000000    -4.709000000
O     0.179000000     2.416000000    -5.780000000
C     0.794000000     1.328000000    -6.370000000
C     1.721000000     1.653000000    -7.294000000
H     1.962000000     2.685000000    -7.537000000
C     2.187000000     0.674000000    -8.158000000
H     2.761000000     1.003000000    -9.020000000
C     1.640000000    -0.564000000    -8.167000000
H     2.030000000    -1.257000000    -8.908000000
C     0.789000000    -0.918000000    -7.123000000
C     0.325000000     0.012000000    -6.253000000
H    -0.412000000    -0.218000000    -5.489000000
O    -3.320000000     3.616000000    -7.978000000
H    -3.729000000     3.380000000    -7.146000000
H    -2.410000000     3.807000000    -7.751000000
O    -5.542000000     6.462000000    -2.922000000
H    -4.752000000     6.552000000    -3.456000000
H    -6.242000000     6.819000000    -3.469000000
O    -2.980000000     0.122000000    -5.516000000
H    -3.889000000    -0.038000000    -5.772000000
H    -2.911000000     1.075000000    -5.463000000
O    -5.366000000     5.960000000    -0.312000000
H    -4.774000000     5.218000000    -0.186000000
H    -5.282000000     6.179000000    -1.240000000
O    -1.917000000    -1.584000000    -1.156000000
H    -1.391000000    -0.834000000    -1.433000000
H    -2.220000000    -1.353000000    -0.278000000
O    -5.813000000     0.044000000    -5.859000000
H    -6.322000000     0.841000000    -5.712000000
H    -6.201000000    -0.601000000    -5.267000000
O    -6.463000000     2.962000000     0.511000000
H    -7.058000000     2.351000000     0.077000000
H    -5.673000000     2.953000000    -0.029000000
O    -5.839000000    -0.279000000    -1.264000000
H    -5.499000000     0.609000000    -1.147000000
H    -5.337000000    -0.633000000    -1.998000000
O    -4.315000000     3.027000000    -5.282000000
H    -4.211000000     2.938000000    -4.335000000
H    -5.165000000     2.629000000    -5.468000000
O    -4.967000000    -2.873000000    -5.407000000
H    -4.434000000    -2.240000000    -4.926000000
H    -5.869000000    -2.588000000    -5.258000000
O    -7.632000000    -0.513000000     0.694000000
H    -6.926000000    -0.631000000     0.058000000
H    -7.199000000    -0.152000000     1.468000000
O    -9.090000000     2.629000000    -1.851000000
H    -9.797000000     3.265000000    -1.959000000
H    -8.313000000     3.074000000    -2.189000000
O    -2.131000000     8.134000000    -4.075000000
H    -2.338000000     7.222000000    -3.873000000
H    -2.105000000     8.167000000    -5.032000000
O    -3.184000000     5.527000000    -3.811000000
H    -3.201000000     5.192000000    -4.707000000
H    -3.319000000     4.753000000    -3.264000000
O    -7.189000000     2.766000000    -5.271000000
H    -7.927000000     3.255000000    -5.634000000
H    -6.953000000     3.243000000    -4.476000000
O    -3.479000000    -1.467000000    -3.418000000
H    -2.814000000    -1.717000000    -2.776000000
H    -3.049000000    -0.809000000    -3.964000000
O    -6.572000000     3.764000000    -2.682000000
H    -6.250000000     4.650000000    -2.515000000
H    -5.856000000     3.193000000    -2.403000000
O    -8.051000000     5.822000000     0.898000000
H    -7.343000000     6.252000000     0.419000000
H    -7.746000000     4.923000000     1.022000000
O    -5.087000000     8.661000000    -0.412000000
H    -5.994000000     8.907000000    -0.592000000
H    -5.137000000     7.746000000    -0.134000000
