201
-1210.65382
C    -2.922000000    -1.651000000     3.653000000
H    -2.679000000    -0.937000000     4.436000000
C    -1.957000000    -2.502000000     3.113000000
C    -2.302000000    -3.296000000     1.995000000
H    -1.513000000    -3.893000000     1.545000000
C    -0.514000000    -2.220000000     3.434000000
O    -0.371000000    -1.664000000     4.698000000
H    -0.093000000    -1.505000000     2.712000000
O     0.095000000    -3.496000000     3.437000000
C     1.268000000    -3.436000000     2.740000000
C     1.293000000    -3.955000000     1.426000000
H     0.443000000    -4.479000000     0.997000000
C     2.375000000    -3.790000000     0.591000000
O     2.131000000    -4.240000000    -0.713000000
C     3.455000000    -3.001000000     0.939000000
C     4.637000000    -2.863000000     0.102000000
H     5.609000000    -2.747000000     0.586000000
C     4.545000000    -1.700000000    -0.797000000
C     4.930000000    -0.445000000    -0.350000000
H     5.559000000    -0.245000000     0.514000000
H     4.708000000    -3.807000000    -0.442000000
C     3.452000000    -2.416000000     2.134000000
H     4.353000000    -1.902000000     2.460000000
C     2.377000000    -2.662000000     3.120000000
C     2.531000000    -2.046000000     4.448000000
H     3.592000000    -1.962000000     4.693000000
H     2.116000000    -2.674000000     5.240000000
C     1.883000000    -0.724000000     4.534000000
C     2.636000000     0.429000000     4.379000000
H     3.705000000     0.278000000     4.256000000
C     0.481000000    -0.575000000     4.898000000
C    -0.007000000     0.738000000     4.969000000
H    -1.073000000     0.866000000     5.137000000
C     0.769000000     1.858000000     4.626000000
O     0.058000000     2.958000000     4.456000000
C    -0.167000000     3.490000000     3.026000000
C    -1.577000000     4.110000000     2.890000000
C    -1.935000000     4.766000000     1.718000000
H    -1.161000000     5.149000000     1.058000000
C    -2.614000000     3.690000000     3.779000000
H    -2.412000000     3.220000000     4.739000000
O     0.915000000     4.421000000     2.667000000
H    -0.093000000     2.591000000     2.396000000
C     2.056000000     1.693000000     4.377000000
C     2.937000000     2.891000000     4.026000000
H     3.960000000     2.634000000     4.309000000
H     2.665000000     3.804000000     4.559000000
C     2.941000000     3.074000000     2.541000000
C     3.926000000     2.582000000     1.683000000
H     4.769000000     2.129000000     2.199000000
C     1.962000000     3.862000000     1.937000000
C     1.844000000     3.889000000     0.510000000
H     1.018000000     4.425000000     0.050000000
C     2.837000000     3.345000000    -0.326000000
O     2.615000000     3.410000000    -1.707000000
C     2.273000000     2.210000000    -2.454000000
C     1.208000000     2.463000000    -3.543000000
C     0.150000000     3.360000000    -3.312000000
H     0.240000000     3.931000000    -2.391000000
C     1.192000000     1.677000000    -4.633000000
H     2.026000000     1.031000000    -4.891000000
O     3.421000000     1.546000000    -2.931000000
H     1.751000000     1.532000000    -1.763000000
C     3.938000000     2.746000000     0.285000000
C     5.024000000     2.104000000    -0.558000000
H     5.959000000     2.009000000    -0.001000000
H     5.223000000     2.785000000    -1.388000000
C     4.615000000     0.721000000    -1.039000000
C     3.923000000     0.546000000    -2.237000000
C     3.647000000    -0.736000000    -2.735000000
H     3.040000000    -0.930000000    -3.615000000
C     3.860000000    -1.856000000    -1.991000000
O     3.300000000    -3.001000000    -2.362000000
C     1.985000000    -3.336000000    -1.767000000
H     1.626000000    -2.384000000    -1.348000000
C     1.043000000    -3.936000000    -2.875000000
C     0.069000000    -4.884000000    -2.515000000
H    -0.099000000    -5.239000000    -1.501000000
C     1.245000000    -3.492000000    -4.219000000
H     2.125000000    -2.925000000    -4.513000000
C     0.447000000    -3.944000000    -5.206000000
O     0.581000000    -3.489000000    -6.495000000
C    -0.505000000    -4.936000000    -4.885000000
H    -1.034000000    -5.324000000    -5.752000000
C    -0.747000000    -5.365000000    -3.584000000
O    -1.772000000    -6.185000000    -3.340000000
C    -2.370000000    -6.250000000    -2.124000000
C    -2.990000000    -5.097000000    -1.548000000
H    -3.213000000    -4.225000000    -2.158000000
C    -2.047000000    -7.413000000    -1.416000000
H    -1.771000000    -8.298000000    -1.984000000
C    -2.358000000    -7.363000000    -0.013000000
H    -2.227000000    -8.251000000     0.600000000
C    -3.057000000    -6.297000000     0.533000000
H    -3.325000000    -6.356000000     1.585000000
C    -3.267000000    -5.106000000    -0.173000000
O    -3.923000000    -4.017000000     0.383000000
C    -3.586000000    -3.363000000     1.521000000
C    -4.511000000    -2.607000000     2.182000000
H    -5.478000000    -2.558000000     1.689000000
C    -4.230000000    -1.744000000     3.224000000
O    -5.235000000    -1.063000000     3.834000000
C    -5.114000000    -0.036000000     4.622000000
C    -5.137000000     1.215000000     4.067000000
H    -5.214000000     1.388000000     2.997000000
C    -5.262000000    -0.281000000     5.986000000
H    -5.373000000    -1.278000000     6.405000000
C    -5.050000000     0.794000000     6.814000000
H    -5.010000000     0.650000000     7.891000000
C    -4.906000000     2.072000000     6.310000000
H    -4.858000000     2.949000000     6.952000000
C    -4.941000000     2.278000000     4.906000000
O    -4.978000000     3.571000000     4.373000000
C    -3.921000000     3.952000000     3.509000000
C    -4.223000000     4.555000000     2.298000000
H    -5.289000000     4.750000000     2.215000000
C    -3.249000000     5.031000000     1.409000000
O    -3.724000000     5.702000000     0.303000000
C    -2.911000000     5.923000000    -0.758000000
C    -2.773000000     4.930000000    -1.739000000
H    -3.265000000     3.969000000    -1.617000000
C    -2.323000000     7.191000000    -0.904000000
H    -2.419000000     7.951000000    -0.133000000
C    -1.519000000     7.430000000    -1.991000000
H    -0.978000000     8.372000000    -2.026000000
C    -1.323000000     6.464000000    -2.989000000
H    -0.654000000     6.778000000    -3.786000000
C    -2.027000000     5.267000000    -2.864000000
O    -1.946000000     4.376000000    -3.904000000
C    -0.898000000     3.535000000    -4.229000000
C    -0.902000000     2.704000000    -5.353000000
H    -1.632000000     2.827000000    -6.149000000
C     0.144000000     1.839000000    -5.551000000
O     0.176000000     1.241000000    -6.772000000
C     0.824000000     0.085000000    -7.072000000
C     1.702000000     0.184000000    -8.115000000
H     1.757000000     1.128000000    -8.650000000
C     2.348000000    -0.965000000    -8.555000000
H     2.997000000    -0.792000000    -9.410000000
C     2.087000000    -2.209000000    -7.888000000
H     2.462000000    -3.120000000    -8.347000000
C     1.029000000    -2.315000000    -6.951000000
C     0.451000000    -1.121000000    -6.464000000
H    -0.361000000    -1.203000000    -5.746000000
O    -8.915000000     3.447000000    -0.299000000
H    -9.421000000     3.914000000     0.366000000
H    -9.543000000     3.278000000    -1.002000000
O    -4.354000000    -1.711000000    -2.537000000
H    -4.373000000    -0.781000000    -2.760000000
H    -4.678000000    -1.749000000    -1.637000000
O    -9.063000000     5.917000000    -1.762000000
H    -8.894000000     5.039000000    -1.421000000
H    -9.648000000     5.777000000    -2.506000000
O    -6.159000000     3.537000000    -2.907000000
H    -5.777000000     2.662000000    -2.843000000
H    -6.016000000     3.925000000    -2.044000000
O    -4.175000000     6.010000000    -5.475000000
H    -3.980000000     5.109000000    -5.216000000
H    -4.779000000     6.327000000    -4.803000000
O    -7.589000000    -0.056000000    -6.392000000
H    -6.708000000     0.144000000    -6.079000000
H    -7.502000000    -0.092000000    -7.345000000
O    -6.969000000    -1.570000000    -0.546000000
H    -7.177000000    -2.181000000     0.161000000
H    -7.127000000    -0.705000000    -0.169000000
O    -7.819000000    -3.940000000    -2.063000000
H    -7.333000000    -3.167000000    -1.774000000
H    -7.361000000    -4.676000000    -1.657000000
O    -6.702000000     6.451000000    -3.539000000
H    -7.180000000     6.188000000    -2.753000000
H    -6.834000000     5.728000000    -4.153000000
O   -10.665000000     2.399000000    -2.252000000
H   -11.430000000     2.363000000    -2.826000000
H    -9.927000000     2.535000000    -2.846000000
O    -8.324000000     2.762000000     2.759000000
H    -7.987000000     2.268000000     2.011000000
H    -9.265000000     2.588000000     2.756000000
O    -7.398000000     1.049000000     0.385000000
H    -6.534000000     1.248000000     0.024000000
H    -7.994000000     1.633000000    -0.083000000
O    -5.102000000     0.176000000    -5.390000000
H    -4.676000000    -0.662000000    -5.573000000
H    -5.144000000     0.219000000    -4.435000000
O    -8.200000000     0.809000000    -2.785000000
H    -7.383000000     0.434000000    -2.458000000
H    -7.964000000     1.695000000    -3.060000000
O    -4.729000000    -4.254000000    -4.093000000
H    -4.454000000    -3.481000000    -3.601000000
H    -5.124000000    -3.903000000    -4.891000000
O    -4.805000000     3.088000000    -5.552000000
H    -5.409000000     3.179000000    -4.815000000
H    -4.862000000     2.165000000    -5.797000000
O   -10.333000000    -0.922000000    -2.510000000
H    -9.605000000    -0.316000000    -2.373000000
H   -11.058000000    -0.542000000    -2.014000000
O    -6.642000000     7.274000000    -0.122000000
H    -6.507000000     6.343000000     0.056000000
H    -7.111000000     7.293000000    -0.956000000
O    -6.426000000     4.162000000    -0.068000000
H    -7.286000000     3.774000000    -0.234000000
H    -5.822000000     3.420000000    -0.082000000
