201
-1243.70766
C    -2.349000000    -1.692000000     4.445000000
H    -1.621000000    -1.092000000     4.985000000
C    -1.909000000    -2.584000000     3.438000000
C    -2.852000000    -3.268000000     2.698000000
H    -2.458000000    -3.964000000     1.963000000
C    -0.413000000    -2.777000000     3.086000000
O     0.334000000    -2.247000000     4.135000000
H    -0.247000000    -2.270000000     2.124000000
O    -0.013000000    -4.145000000     2.797000000
C     0.888000000    -4.368000000     1.880000000
C     0.330000000    -4.868000000     0.655000000
H    -0.746000000    -5.021000000     0.614000000
C     1.159000000    -4.790000000    -0.423000000
O     0.440000000    -4.831000000    -1.625000000
C     2.523000000    -4.395000000    -0.372000000
C     3.339000000    -4.267000000    -1.653000000
H     4.405000000    -4.422000000    -1.478000000
C     3.226000000    -2.896000000    -2.297000000
C     4.101000000    -1.886000000    -1.909000000
H     4.760000000    -2.077000000    -1.067000000
H     3.107000000    -5.109000000    -2.309000000
C     3.101000000    -4.106000000     0.924000000
H     4.160000000    -3.870000000     0.989000000
C     2.248000000    -4.053000000     2.047000000
C     2.838000000    -3.483000000     3.346000000
H     3.911000000    -3.685000000     3.323000000
H     2.411000000    -4.021000000     4.196000000
C     2.571000000    -1.960000000     3.377000000
C     3.549000000    -1.084000000     3.028000000
H     4.465000000    -1.499000000     2.615000000
C     1.360000000    -1.449000000     3.890000000
C     1.230000000    -0.095000000     4.151000000
H     0.346000000     0.247000000     4.683000000
C     2.207000000     0.793000000     3.706000000
O     1.910000000     2.185000000     3.861000000
C     1.574000000     2.802000000     2.623000000
C     0.457000000     3.747000000     2.898000000
C     0.293000000     4.781000000     2.059000000
H     1.032000000     4.942000000     1.279000000
C    -0.571000000     3.343000000     3.799000000
H    -0.537000000     2.386000000     4.313000000
O     2.689000000     3.434000000     2.064000000
H     1.193000000     1.969000000     2.014000000
C     3.373000000     0.273000000     3.202000000
C     4.519000000     1.241000000     2.894000000
H     5.487000000     0.766000000     3.064000000
H     4.513000000     2.133000000     3.523000000
C     4.380000000     1.725000000     1.451000000
C     4.998000000     1.070000000     0.377000000
H     5.580000000     0.170000000     0.562000000
C     3.489000000     2.764000000     1.164000000
C     3.344000000     3.154000000    -0.144000000
H     2.646000000     3.934000000    -0.437000000
C     3.915000000     2.542000000    -1.231000000
O     3.410000000     2.800000000    -2.518000000
C     2.366000000     2.037000000    -3.081000000
C     1.382000000     2.946000000    -3.771000000
C     1.236000000     4.259000000    -3.258000000
H     1.907000000     4.661000000    -2.503000000
C     0.599000000     2.516000000    -4.861000000
H     0.729000000     1.522000000    -5.282000000
O     2.903000000     0.968000000    -3.944000000
H     1.873000000     1.503000000    -2.256000000
C     4.676000000     1.400000000    -0.951000000
C     5.058000000     0.420000000    -2.093000000
H     5.888000000    -0.164000000    -1.689000000
H     5.381000000     0.996000000    -2.963000000
C     3.972000000    -0.593000000    -2.452000000
C     2.997000000    -0.314000000    -3.375000000
C     2.092000000    -1.246000000    -3.759000000
H     1.361000000    -0.961000000    -4.512000000
C     2.175000000    -2.566000000    -3.249000000
O     1.219000000    -3.517000000    -3.490000000
C     0.224000000    -3.560000000    -2.438000000
H     0.350000000    -2.716000000    -1.743000000
C    -1.213000000    -3.417000000    -2.939000000
C    -2.182000000    -4.356000000    -2.545000000
H    -1.938000000    -5.148000000    -1.841000000
C    -1.591000000    -2.324000000    -3.739000000
H    -0.853000000    -1.559000000    -3.964000000
C    -2.895000000    -2.230000000    -4.248000000
O    -3.296000000    -1.121000000    -4.896000000
C    -3.870000000    -3.188000000    -3.924000000
H    -4.915000000    -3.072000000    -4.202000000
C    -3.551000000    -4.175000000    -2.930000000
O    -4.480000000    -5.075000000    -2.423000000
C    -4.528000000    -5.479000000    -1.059000000
C    -4.814000000    -4.541000000    -0.136000000
H    -5.127000000    -3.608000000    -0.598000000
C    -4.289000000    -6.810000000    -0.679000000
H    -4.142000000    -7.596000000    -1.416000000
C    -4.386000000    -7.173000000     0.714000000
H    -4.129000000    -8.212000000     0.901000000
C    -4.635000000    -6.140000000     1.663000000
H    -4.611000000    -6.435000000     2.709000000
C    -4.846000000    -4.839000000     1.212000000
O    -5.113000000    -3.856000000     2.136000000
C    -4.217000000    -3.136000000     2.939000000
C    -4.596000000    -2.204000000     3.938000000
H    -5.674000000    -2.081000000     3.998000000
C    -3.720000000    -1.586000000     4.765000000
O    -4.240000000    -0.782000000     5.762000000
C    -3.656000000     0.464000000     6.045000000
C    -3.699000000     1.537000000     5.089000000
H    -4.170000000     1.369000000     4.124000000
C    -3.039000000     0.639000000     7.285000000
H    -3.096000000    -0.193000000     7.982000000
C    -2.260000000     1.755000000     7.568000000
H    -1.665000000     1.889000000     8.468000000
C    -2.286000000     2.761000000     6.611000000
H    -1.670000000     3.609000000     6.900000000
C    -3.063000000     2.713000000     5.447000000
O    -2.866000000     3.764000000     4.501000000
C    -1.756000000     4.126000000     3.858000000
C    -1.901000000     5.212000000     2.991000000
H    -2.878000000     5.675000000     2.878000000
C    -0.886000000     5.538000000     2.066000000
O    -1.103000000     6.470000000     1.105000000
C    -0.188000000     6.935000000     0.148000000
C    -0.445000000     6.391000000    -1.066000000
H    -1.356000000     5.814000000    -1.205000000
C     0.868000000     7.780000000     0.335000000
H     0.961000000     8.191000000     1.337000000
C     1.668000000     8.273000000    -0.747000000
H     2.320000000     9.139000000    -0.666000000
C     1.423000000     7.621000000    -1.962000000
H     2.029000000     7.906000000    -2.818000000
C     0.363000000     6.707000000    -2.112000000
O     0.057000000     6.372000000    -3.392000000
C     0.207000000     5.058000000    -3.821000000
C    -0.621000000     4.627000000    -4.839000000
H    -1.440000000     5.242000000    -5.205000000
C    -0.351000000     3.388000000    -5.418000000
O    -1.275000000     2.934000000    -6.321000000
C    -1.425000000     1.614000000    -6.506000000
C    -0.964000000     0.940000000    -7.643000000
H    -0.495000000     1.570000000    -8.394000000
C    -1.303000000    -0.378000000    -7.882000000
H    -0.956000000    -0.921000000    -8.757000000
C    -2.073000000    -1.041000000    -6.919000000
H    -2.294000000    -2.093000000    -7.082000000
C    -2.474000000    -0.415000000    -5.729000000
C    -2.253000000     0.970000000    -5.604000000
H    -2.622000000     1.701000000    -4.889000000
O    -5.304000000     5.070000000     2.159000000
H    -6.060000000     5.376000000     1.658000000
H    -4.680000000     4.775000000     1.496000000
O    -6.544000000     1.576000000     0.656000000
H    -5.918000000     2.170000000     0.240000000
H    -7.393000000     2.001000000     0.536000000
O    -6.725000000    -0.374000000    -5.294000000
H    -6.326000000    -0.924000000    -4.620000000
H    -6.115000000     0.357000000    -5.399000000
O    -3.749000000     9.033000000    -1.873000000
H    -2.919000000     9.187000000    -1.421000000
H    -3.607000000     8.225000000    -2.365000000
O    -8.601000000     3.305000000     0.370000000
H    -9.409000000     2.851000000     0.133000000
H    -8.833000000     3.818000000     1.145000000
O    -3.556000000    -1.143000000    -0.368000000
H    -2.926000000    -0.658000000     0.165000000
H    -3.128000000    -1.238000000    -1.219000000
O    -6.045000000    -1.268000000     0.653000000
H    -6.337000000    -0.363000000     0.546000000
H    -5.112000000    -1.246000000     0.439000000
O    -6.630000000     3.143000000     3.964000000
H    -6.385000000     3.859000000     3.377000000
H    -6.160000000     3.329000000     4.777000000
O    -7.200000000     0.538000000     3.480000000
H    -6.900000000     1.375000000     3.837000000
H    -6.877000000     0.533000000     2.579000000
O    -6.556000000     3.117000000    -6.481000000
H    -5.607000000     3.235000000    -6.464000000
H    -6.903000000     3.907000000    -6.068000000
O    -7.667000000     4.297000000    -4.106000000
H    -7.828000000     5.240000000    -4.106000000
H    -7.535000000     4.076000000    -3.184000000
O    -5.521000000     2.077000000    -3.859000000
H    -4.979000000     2.624000000    -3.290000000
H    -6.073000000     2.699000000    -4.334000000
O    -3.328000000     4.745000000    -7.790000000
H    -3.473000000     5.686000000    -7.692000000
H    -3.341000000     4.405000000    -6.896000000
O    -4.219000000     4.367000000    -5.100000000
H    -4.059000000     3.940000000    -4.258000000
H    -4.697000000     5.166000000    -4.875000000
O    -6.357000000     8.415000000    -0.992000000
H    -6.296000000     9.363000000    -0.873000000
H    -5.508000000     8.165000000    -1.358000000
O    -6.503000000    -0.230000000    -2.432000000
H    -5.607000000    -0.006000000    -2.182000000
H    -6.789000000     0.500000000    -2.980000000
O    -6.871000000     4.302000000    -1.508000000
H    -5.967000000     4.263000000    -1.196000000
H    -7.402000000     4.166000000    -0.724000000
O    -7.355000000     6.391000000     0.809000000
H    -7.004000000     7.106000000     0.278000000
H    -8.071000000     6.033000000     0.286000000
O    -4.329000000     6.305000000    -2.141000000
H    -4.695000000     6.171000000    -1.266000000
H    -4.074000000     5.430000000    -2.431000000
