201
-1266.95405
C    -0.388000000    -1.367000000     5.293000000
H     0.570000000    -1.046000000     5.696000000
C    -0.393000000    -2.131000000     4.140000000
C    -1.624000000    -2.443000000     3.570000000
H    -1.742000000    -2.901000000     2.591000000
C     0.809000000    -2.473000000     3.285000000
O     2.016000000    -2.221000000     4.013000000
H     0.802000000    -1.814000000     2.405000000
O     0.802000000    -3.846000000     2.851000000
C     1.308000000    -4.194000000     1.597000000
C     0.372000000    -4.450000000     0.553000000
H    -0.687000000    -4.554000000     0.773000000
C     0.696000000    -4.419000000    -0.811000000
O    -0.360000000    -4.688000000    -1.710000000
C     2.066000000    -4.271000000    -1.159000000
C     2.458000000    -4.252000000    -2.569000000
H     3.533000000    -4.368000000    -2.722000000
C     2.141000000    -2.881000000    -3.212000000
C     3.136000000    -1.918000000    -3.286000000
H     4.147000000    -2.125000000    -2.943000000
H     2.021000000    -5.073000000    -3.142000000
C     3.028000000    -4.098000000    -0.151000000
H     4.057000000    -3.964000000    -0.474000000
C     2.638000000    -3.911000000     1.131000000
C     3.732000000    -3.540000000     2.126000000
H     4.734000000    -3.878000000     1.851000000
H     3.587000000    -4.038000000     3.088000000
C     3.779000000    -2.076000000     2.395000000
C     4.638000000    -1.237000000     1.633000000
H     5.415000000    -1.680000000     1.016000000
C     2.918000000    -1.439000000     3.319000000
C     2.837000000    -0.067000000     3.407000000
H     2.074000000     0.361000000     4.053000000
C     3.696000000     0.695000000     2.652000000
O     3.512000000     2.106000000     2.761000000
C     2.650000000     2.808000000     1.871000000
C     1.721000000     3.778000000     2.549000000
C     1.172000000     4.853000000     1.757000000
H     1.240000000     4.945000000     0.676000000
C     1.251000000     3.470000000     3.815000000
H     1.805000000     2.745000000     4.406000000
O     3.556000000     3.422000000     0.862000000
H     2.036000000     2.020000000     1.409000000
C     4.516000000     0.153000000     1.674000000
C     5.384000000     1.070000000     0.816000000
H     6.334000000     0.602000000     0.548000000
H     5.747000000     1.908000000     1.414000000
C     4.659000000     1.668000000    -0.396000000
C     4.714000000     1.023000000    -1.649000000
H     5.268000000     0.088000000    -1.679000000
C     3.858000000     2.865000000    -0.369000000
C     3.128000000     3.299000000    -1.461000000
H     2.298000000     3.995000000    -1.369000000
C     3.153000000     2.565000000    -2.638000000
O     2.268000000     2.888000000    -3.666000000
C     1.078000000     2.048000000    -3.633000000
C    -0.260000000     2.696000000    -3.928000000
C    -0.593000000     3.815000000    -3.208000000
H     0.145000000     4.251000000    -2.539000000
C    -1.239000000     2.020000000    -4.749000000
H    -0.949000000     1.149000000    -5.330000000
O     1.346000000     0.966000000    -4.618000000
H     1.088000000     1.558000000    -2.649000000
C     3.949000000     1.427000000    -2.732000000
C     4.061000000     0.432000000    -3.828000000
H     5.051000000    -0.027000000    -3.843000000
H     4.076000000     0.943000000    -4.793000000
C     2.919000000    -0.611000000    -3.747000000
C     1.644000000    -0.294000000    -4.219000000
C     0.643000000    -1.228000000    -4.133000000
H    -0.344000000    -1.037000000    -4.546000000
C     0.851000000    -2.499000000    -3.650000000
O    -0.232000000    -3.365000000    -3.608000000
C    -0.862000000    -3.564000000    -2.340000000
H    -0.628000000    -2.678000000    -1.732000000
C    -2.409000000    -3.618000000    -2.499000000
C    -3.222000000    -3.957000000    -1.405000000
H    -2.762000000    -4.277000000    -0.474000000
C    -3.070000000    -3.339000000    -3.739000000
H    -2.510000000    -3.128000000    -4.646000000
C    -4.453000000    -3.071000000    -3.703000000
O    -5.003000000    -2.596000000    -4.843000000
C    -5.240000000    -3.449000000    -2.621000000
H    -6.301000000    -3.223000000    -2.688000000
C    -4.648000000    -3.944000000    -1.466000000
O    -5.508000000    -4.434000000    -0.479000000
C    -5.108000000    -4.526000000     0.847000000
C    -4.782000000    -3.437000000     1.592000000
H    -4.973000000    -2.440000000     1.205000000
C    -4.865000000    -5.798000000     1.352000000
H    -5.069000000    -6.627000000     0.678000000
C    -4.336000000    -6.060000000     2.643000000
H    -4.106000000    -7.085000000     2.920000000
C    -4.010000000    -4.930000000     3.398000000
H    -3.652000000    -5.010000000     4.421000000
C    -4.215000000    -3.597000000     2.890000000
O    -4.063000000    -2.489000000     3.674000000
C    -2.796000000    -2.159000000     4.206000000
C    -2.819000000    -1.452000000     5.394000000
H    -3.743000000    -1.212000000     5.913000000
C    -1.618000000    -1.027000000     5.922000000
O    -1.673000000    -0.140000000     6.983000000
C    -0.675000000     0.845000000     7.022000000
C    -0.794000000     1.864000000     6.116000000
H    -1.651000000     1.907000000     5.448000000
C     0.296000000     0.809000000     7.984000000
H     0.320000000    -0.057000000     8.640000000
C     0.947000000     1.947000000     8.287000000
H     1.480000000     2.010000000     9.232000000
C     0.887000000     3.061000000     7.415000000
H     1.544000000     3.924000000     7.488000000
C    -0.009000000     3.011000000     6.362000000
O    -0.207000000     4.152000000     5.652000000
C     0.305000000     4.299000000     4.390000000
C    -0.223000000     5.349000000     3.724000000
H    -0.923000000     5.987000000     4.258000000
C     0.197000000     5.630000000     2.429000000
O    -0.330000000     6.618000000     1.711000000
C    -0.302000000     6.826000000     0.323000000
C    -1.355000000     6.178000000    -0.369000000
H    -2.081000000     5.670000000     0.261000000
C     0.635000000     7.614000000    -0.277000000
H     1.481000000     8.027000000     0.265000000
C     0.615000000     7.583000000    -1.661000000
H     1.256000000     8.242000000    -2.241000000
C    -0.341000000     6.813000000    -2.367000000
H    -0.304000000     6.766000000    -3.452000000
C    -1.365000000     6.144000000    -1.704000000
O    -2.283000000     5.274000000    -2.311000000
C    -1.922000000     4.213000000    -3.146000000
C    -2.892000000     3.533000000    -3.858000000
H    -3.927000000     3.829000000    -3.710000000
C    -2.569000000     2.441000000    -4.665000000
O    -3.577000000     1.891000000    -5.426000000
C    -3.650000000     0.651000000    -5.942000000
C    -3.075000000     0.309000000    -7.161000000
H    -2.482000000     0.982000000    -7.775000000
C    -3.040000000    -1.004000000    -7.552000000
H    -2.522000000    -1.232000000    -8.480000000
C    -3.729000000    -2.016000000    -6.832000000
H    -3.814000000    -3.034000000    -7.205000000
C    -4.394000000    -1.624000000    -5.635000000
C    -4.397000000    -0.305000000    -5.184000000
H    -4.969000000    -0.038000000    -4.299000000
O    -7.185000000     2.557000000     0.829000000
H    -6.290000000     2.301000000     1.052000000
H    -7.478000000     3.079000000     1.576000000
O    -3.627000000     3.815000000     5.698000000
H    -3.543000000     3.483000000     4.804000000
H    -3.910000000     4.723000000     5.591000000
O    -6.439000000     2.801000000     4.589000000
H    -6.042000000     2.329000000     5.321000000
H    -5.776000000     2.776000000     3.900000000
O    -7.760000000    -0.082000000    -2.871000000
H    -7.257000000    -0.298000000    -2.086000000
H    -8.673000000    -0.108000000    -2.585000000
O    -6.137000000    -0.905000000     6.929000000
H    -6.561000000    -0.958000000     7.785000000
H    -5.978000000     0.030000000     6.798000000
O    -5.852000000     5.202000000    -2.650000000
H    -5.846000000     4.245000000    -2.617000000
H    -5.555000000     5.412000000    -3.536000000
O    -8.959000000     0.325000000     4.715000000
H    -9.556000000     0.957000000     4.314000000
H    -8.104000000     0.531000000     4.338000000
O    -9.163000000     3.446000000     5.895000000
H    -8.357000000     3.179000000     5.453000000
H    -9.581000000     4.053000000     5.285000000
O    -8.228000000    -0.875000000     1.592000000
H    -7.734000000    -0.460000000     2.299000000
H    -8.955000000    -0.275000000     1.424000000
O    -5.288000000     2.591000000    -1.627000000
H    -4.929000000     1.712000000    -1.742000000
H    -6.037000000     2.470000000    -1.043000000
O    -4.041000000     5.106000000     2.179000000
H    -4.796000000     5.126000000     1.592000000
H    -3.923000000     4.179000000     2.385000000
O    -6.637000000    -0.271000000    -0.355000000
H    -6.015000000     0.124000000     0.256000000
H    -7.253000000    -0.745000000     0.205000000
O    -2.959000000     7.714000000     3.056000000
H    -3.131000000     6.846000000     2.692000000
H    -2.605000000     8.216000000     2.322000000
O    -6.470000000     5.722000000     1.192000000
H    -6.379000000     6.674000000     1.153000000
H    -6.407000000     5.438000000     0.280000000
O    -4.446000000     6.561000000     5.640000000
H    -4.017000000     7.321000000     5.246000000
H    -5.279000000     6.489000000     5.174000000
O    -5.249000000     1.719000000     6.746000000
H    -4.380000000     2.113000000     6.664000000
H    -5.452000000     1.781000000     7.679000000
O    -6.489000000     0.152000000     3.589000000
H    -6.040000000     0.712000000     2.956000000
H    -5.820000000    -0.471000000     3.875000000
O    -9.517000000     2.018000000    -0.572000000
H    -9.485000000     2.843000000    -1.057000000
H    -8.682000000     1.983000000    -0.105000000
O    -6.808000000     5.688000000     3.943000000
H    -6.633000000     5.689000000     3.002000000
H    -6.618000000     4.792000000     4.221000000
