201
-1233.67444
C     0.454000000    -0.728000000     5.445000000
H     1.466000000    -0.429000000     5.706000000
C     0.306000000    -1.752000000     4.504000000
C    -0.935000000    -2.194000000     4.140000000
H    -1.030000000    -2.934000000     3.350000000
C     1.469000000    -2.201000000     3.635000000
O     2.700000000    -1.889000000     4.173000000
H     1.489000000    -1.601000000     2.713000000
O     1.452000000    -3.592000000     3.202000000
C     1.617000000    -3.957000000     1.912000000
C     0.497000000    -4.393000000     1.143000000
H    -0.478000000    -4.493000000     1.613000000
C     0.641000000    -4.602000000    -0.263000000
O    -0.503000000    -4.915000000    -0.946000000
C     1.899000000    -4.542000000    -0.869000000
C     2.028000000    -4.671000000    -2.352000000
H     3.040000000    -4.949000000    -2.650000000
C     1.721000000    -3.381000000    -3.096000000
C     2.705000000    -2.411000000    -3.351000000
H     3.701000000    -2.608000000    -2.962000000
H     1.396000000    -5.523000000    -2.612000000
C     2.990000000    -4.145000000    -0.100000000
H     3.910000000    -3.971000000    -0.650000000
C     2.862000000    -3.797000000     1.241000000
C     4.105000000    -3.340000000     1.994000000
H     5.067000000    -3.619000000     1.561000000
H     3.952000000    -3.717000000     3.007000000
C     4.168000000    -1.808000000     2.222000000
C     4.898000000    -1.054000000     1.314000000
H     5.482000000    -1.441000000     0.484000000
C     3.540000000    -1.201000000     3.334000000
C     3.470000000     0.184000000     3.379000000
H     2.763000000     0.638000000     4.067000000
C     4.108000000     0.946000000     2.349000000
O     3.813000000     2.286000000     2.339000000
C     2.876000000     2.801000000     1.276000000
C     1.866000000     3.870000000     1.817000000
C     1.019000000     4.510000000     0.924000000
H     0.990000000     4.297000000    -0.142000000
C     1.813000000     4.018000000     3.176000000
H     2.409000000     3.367000000     3.810000000
O     3.551000000     3.429000000     0.199000000
H     2.304000000     1.952000000     0.873000000
C     4.742000000     0.325000000     1.297000000
C     5.349000000     1.163000000     0.236000000
H     6.194000000     0.634000000    -0.209000000
H     5.719000000     2.101000000     0.656000000
C     4.426000000     1.561000000    -0.867000000
C     4.489000000     0.706000000    -2.035000000
H     5.175000000    -0.129000000    -2.151000000
C     3.632000000     2.672000000    -0.863000000
C     2.724000000     2.811000000    -1.929000000
H     1.936000000     3.556000000    -1.858000000
C     2.677000000     1.877000000    -2.948000000
O     1.670000000     2.064000000    -3.875000000
C     0.474000000     1.234000000    -3.971000000
C    -0.826000000     2.038000000    -4.140000000
C    -0.855000000     3.378000000    -4.101000000
H     0.067000000     3.920000000    -3.908000000
C    -1.978000000     1.377000000    -4.480000000
H    -1.989000000     0.292000000    -4.545000000
O     0.746000000     0.178000000    -4.901000000
H     0.453000000     0.891000000    -2.926000000
C     3.592000000     0.831000000    -3.046000000
C     3.581000000    -0.182000000    -4.166000000
H     4.546000000    -0.677000000    -4.294000000
H     3.425000000     0.365000000    -5.099000000
C     2.408000000    -1.232000000    -4.041000000
C     1.116000000    -1.040000000    -4.437000000
C     0.110000000    -1.944000000    -4.097000000
H    -0.884000000    -1.660000000    -4.435000000
C     0.382000000    -3.122000000    -3.523000000
O    -0.616000000    -3.963000000    -3.180000000
C    -1.080000000    -3.832000000    -1.834000000
H    -0.716000000    -2.851000000    -1.495000000
C    -2.652000000    -3.903000000    -1.721000000
C    -3.276000000    -4.136000000    -0.523000000
H    -2.701000000    -4.427000000     0.352000000
C    -3.400000000    -3.461000000    -2.772000000
H    -2.855000000    -3.265000000    -3.692000000
C    -4.716000000    -3.395000000    -2.723000000
O    -5.414000000    -3.136000000    -3.872000000
C    -5.436000000    -3.630000000    -1.538000000
H    -6.503000000    -3.428000000    -1.494000000
C    -4.675000000    -3.972000000    -0.392000000
O    -5.372000000    -4.378000000     0.725000000
C    -4.812000000    -4.300000000     2.013000000
C    -4.401000000    -3.085000000     2.544000000
H    -4.577000000    -2.218000000     1.912000000
C    -4.702000000    -5.436000000     2.763000000
H    -5.251000000    -6.323000000     2.459000000
C    -4.122000000    -5.387000000     4.016000000
H    -4.066000000    -6.311000000     4.587000000
C    -3.642000000    -4.244000000     4.533000000
H    -3.147000000    -4.299000000     5.499000000
C    -3.763000000    -3.072000000     3.776000000
O    -3.308000000    -1.904000000     4.365000000
C    -2.060000000    -1.722000000     4.780000000
C    -1.895000000    -0.738000000     5.777000000
H    -2.782000000    -0.437000000     6.328000000
C    -0.631000000    -0.191000000     6.063000000
O    -0.516000000     0.785000000     7.090000000
C     0.317000000     1.846000000     6.870000000
C     0.008000000     2.888000000     5.948000000
H    -0.854000000     2.767000000     5.297000000
C     1.312000000     2.021000000     7.837000000
H     1.400000000     1.340000000     8.679000000
C     2.113000000     3.184000000     7.828000000
H     2.875000000     3.373000000     8.579000000
C     1.945000000     4.085000000     6.717000000
H     2.567000000     4.964000000     6.564000000
C     0.823000000     4.053000000     5.919000000
O     0.634000000     5.025000000     5.008000000
C     0.915000000     4.942000000     3.666000000
C     0.049000000     5.692000000     2.846000000
H    -0.652000000     6.342000000     3.364000000
C     0.118000000     5.479000000     1.492000000
O    -0.804000000     6.105000000     0.664000000
C    -0.685000000     6.363000000    -0.754000000
C    -1.487000000     5.796000000    -1.717000000
H    -2.373000000     5.217000000    -1.470000000
C     0.484000000     7.061000000    -1.132000000
H     1.085000000     7.483000000    -0.330000000
C     0.777000000     7.244000000    -2.469000000
H     1.691000000     7.703000000    -2.837000000
C    -0.095000000     6.753000000    -3.433000000
H     0.179000000     6.932000000    -4.469000000
C    -1.211000000     6.002000000    -3.067000000
O    -1.938000000     5.459000000    -4.045000000
C    -2.009000000     4.142000000    -4.225000000
C    -3.203000000     3.431000000    -4.443000000
H    -4.162000000     3.942000000    -4.397000000
C    -3.172000000     2.028000000    -4.547000000
O    -4.334000000     1.498000000    -4.858000000
C    -4.592000000     0.211000000    -5.294000000
C    -4.719000000    -0.022000000    -6.626000000
H    -4.643000000     0.751000000    -7.386000000
C    -5.009000000    -1.249000000    -7.076000000
H    -5.033000000    -1.498000000    -8.134000000
C    -5.340000000    -2.338000000    -6.181000000
H    -5.634000000    -3.334000000    -6.505000000
C    -5.295000000    -2.066000000    -4.795000000
C    -4.934000000    -0.775000000    -4.410000000
H    -4.788000000    -0.666000000    -3.338000000
O    -5.721000000     5.786000000    -1.348000000
H    -5.220000000     4.999000000    -1.137000000
H    -5.067000000     6.408000000    -1.667000000
O    -3.143000000     3.935000000     4.643000000
H    -3.065000000     3.983000000     3.690000000
H    -2.831000000     4.785000000     4.952000000
O    -6.539000000     3.619000000     1.501000000
H    -6.212000000     3.675000000     2.399000000
H    -5.772000000     3.790000000     0.955000000
O    -7.004000000     0.349000000     0.840000000
H    -7.567000000     1.093000000     1.052000000
H    -7.602000000    -0.314000000     0.495000000
O    -8.712000000     2.728000000     0.331000000
H    -7.899000000     3.103000000     0.669000000
H    -8.877000000     3.207000000    -0.481000000
O    -6.749000000     2.915000000    -3.686000000
H    -7.181000000     2.090000000    -3.906000000
H    -6.274000000     2.728000000    -2.876000000
O    -3.328000000     6.914000000     1.193000000
H    -3.397000000     7.192000000     0.280000000
H    -2.879000000     6.069000000     1.152000000
O    -4.678000000     6.331000000     3.377000000
H    -4.349000000     6.769000000     2.592000000
H    -4.488000000     5.404000000     3.232000000
O    -5.814000000     1.820000000    -1.174000000
H    -5.168000000     2.417000000    -0.796000000
H    -6.252000000     1.431000000    -0.417000000
O    -2.273000000     8.308000000     3.985000000
H    -3.174000000     8.623000000     3.915000000
H    -2.090000000     7.914000000     3.132000000
O    -9.308000000     4.544000000     2.604000000
H    -8.561000000     5.130000000     2.721000000
H    -8.974000000     3.838000000     2.050000000
O    -2.192000000     6.287000000     5.683000000
H    -1.300000000     6.283000000     6.029000000
H    -2.192000000     6.982000000     5.025000000
O    -5.730000000     3.146000000     3.983000000
H    -4.815000000     3.412000000     4.064000000
H    -6.053000000     3.118000000     4.884000000
O    -7.050000000     6.542000000     2.209000000
H    -6.268000000     6.412000000     2.745000000
H    -6.810000000     6.202000000     1.347000000
O    -4.509000000     7.993000000    -1.927000000
H    -5.376000000     8.147000000    -2.301000000
H    -4.210000000     8.860000000    -1.650000000
O    -5.462000000     0.204000000     3.271000000
H    -4.538000000     0.044000000     3.079000000
H    -5.751000000     0.800000000     2.580000000
O    -8.345000000     4.846000000    -1.642000000
H    -8.536000000     4.659000000    -2.561000000
H    -7.428000000     5.120000000    -1.638000000
O    -3.490000000     3.366000000     7.308000000
H    -3.378000000     3.420000000     6.359000000
H    -4.420000000     3.546000000     7.449000000
O    -5.955000000     6.902000000     5.930000000
H    -5.614000000     6.144000000     5.453000000
H    -5.546000000     7.656000000     5.505000000
