201
-1222.39442
C    -0.981000000    -1.293000000     4.985000000
H    -0.008000000    -0.976000000     5.351000000
C    -1.084000000    -2.108000000     3.906000000
C    -2.289000000    -2.270000000     3.239000000
H    -2.328000000    -2.781000000     2.280000000
C     0.144000000    -2.753000000     3.244000000
O     1.340000000    -2.486000000     4.002000000
H     0.204000000    -2.216000000     2.286000000
O    -0.004000000    -4.112000000     2.819000000
C     0.506000000    -4.413000000     1.545000000
C    -0.413000000    -4.614000000     0.496000000
H    -1.472000000    -4.526000000     0.723000000
C    -0.031000000    -4.661000000    -0.860000000
O    -1.019000000    -4.717000000    -1.782000000
C     1.313000000    -4.508000000    -1.260000000
C     1.787000000    -4.679000000    -2.664000000
H     2.774000000    -5.146000000    -2.666000000
C     1.724000000    -3.280000000    -3.400000000
C     2.877000000    -2.509000000    -3.440000000
H     3.781000000    -2.979000000    -3.063000000
H     1.124000000    -5.286000000    -3.284000000
C     2.234000000    -4.475000000    -0.120000000
H     3.296000000    -4.454000000    -0.348000000
C     1.845000000    -4.409000000     1.219000000
C     2.878000000    -4.212000000     2.224000000
H     3.811000000    -4.710000000     1.952000000
H     2.659000000    -4.655000000     3.197000000
C     3.220000000    -2.702000000     2.557000000
C     4.258000000    -2.051000000     1.873000000
H     4.847000000    -2.527000000     1.092000000
C     2.387000000    -1.922000000     3.395000000
C     2.643000000    -0.551000000     3.592000000
H     2.057000000     0.048000000     4.284000000
C     3.676000000     0.069000000     2.955000000
O     3.733000000     1.456000000     3.079000000
C     3.063000000     2.242000000     1.993000000
C     2.251000000     3.398000000     2.614000000
C     2.213000000     4.619000000     1.991000000
H     2.642000000     4.760000000     1.003000000
C     1.659000000     3.234000000     3.852000000
H     1.646000000     2.280000000     4.373000000
O     4.076000000     2.625000000     1.059000000
H     2.291000000     1.581000000     1.573000000
C     4.454000000    -0.696000000     2.032000000
C     5.435000000     0.038000000     1.129000000
H     6.165000000    -0.634000000     0.673000000
H     5.995000000     0.745000000     1.745000000
C     4.785000000     0.621000000    -0.107000000
C     4.758000000    -0.119000000    -1.322000000
H     5.129000000    -1.140000000    -1.364000000
C     4.207000000     1.940000000    -0.079000000
C     3.577000000     2.518000000    -1.153000000
H     2.909000000     3.365000000    -1.021000000
C     3.604000000     1.862000000    -2.360000000
O     2.811000000     2.352000000    -3.404000000
C     1.482000000     1.695000000    -3.594000000
C     0.417000000     2.731000000    -3.907000000
C     0.480000000     4.009000000    -3.400000000
H     1.392000000     4.295000000    -2.882000000
C    -0.800000000     2.349000000    -4.544000000
H    -0.901000000     1.319000000    -4.876000000
O     1.490000000     0.695000000    -4.653000000
H     1.073000000     1.198000000    -2.701000000
C     4.137000000     0.510000000    -2.412000000
C     4.029000000    -0.198000000    -3.769000000
H     4.926000000    -0.821000000    -3.769000000
H     4.108000000     0.404000000    -4.676000000
C     2.851000000    -1.165000000    -3.837000000
C     1.655000000    -0.667000000    -4.396000000
C     0.490000000    -1.481000000    -4.370000000
H    -0.451000000    -0.965000000    -4.542000000
C     0.483000000    -2.738000000    -3.894000000
O    -0.679000000    -3.471000000    -3.742000000
C    -1.299000000    -3.432000000    -2.414000000
H    -0.757000000    -2.682000000    -1.819000000
C    -2.777000000    -3.173000000    -2.538000000
C    -3.649000000    -3.563000000    -1.587000000
H    -3.363000000    -4.228000000    -0.776000000
C    -3.286000000    -2.440000000    -3.627000000
H    -2.623000000    -2.187000000    -4.451000000
C    -4.635000000    -2.156000000    -3.736000000
O    -5.198000000    -1.413000000    -4.803000000
C    -5.516000000    -2.623000000    -2.831000000
H    -6.558000000    -2.327000000    -2.922000000
C    -5.035000000    -3.310000000    -1.766000000
O    -5.888000000    -3.859000000    -0.902000000
C    -5.677000000    -3.989000000     0.469000000
C    -5.395000000    -2.885000000     1.309000000
H    -5.394000000    -1.893000000     0.865000000
C    -5.509000000    -5.342000000     0.928000000
H    -5.560000000    -6.176000000     0.233000000
C    -5.222000000    -5.496000000     2.307000000
H    -5.049000000    -6.490000000     2.711000000
C    -5.153000000    -4.368000000     3.151000000
H    -4.899000000    -4.534000000     4.195000000
C    -5.124000000    -3.058000000     2.652000000
O    -4.692000000    -2.034000000     3.397000000
C    -3.428000000    -1.840000000     3.901000000
C    -3.359000000    -1.059000000     5.083000000
H    -4.278000000    -0.593000000     5.429000000
C    -2.137000000    -0.778000000     5.589000000
O    -2.031000000     0.027000000     6.703000000
C    -1.041000000     0.958000000     7.002000000
C    -0.868000000     2.130000000     6.250000000
H    -1.341000000     2.208000000     5.274000000
C    -0.127000000     0.618000000     7.978000000
H    -0.173000000    -0.314000000     8.535000000
C     0.865000000     1.517000000     8.281000000
H     1.596000000     1.414000000     9.080000000
C     1.069000000     2.668000000     7.561000000
H     1.930000000     3.305000000     7.747000000
C     0.224000000     2.939000000     6.508000000
O     0.541000000     4.110000000     5.755000000
C     0.915000000     4.221000000     4.446000000
C     0.757000000     5.408000000     3.774000000
H     0.179000000     6.185000000     4.267000000
C     1.334000000     5.587000000     2.519000000
O     0.985000000     6.723000000     1.841000000
C     1.030000000     6.857000000     0.433000000
C     0.059000000     6.354000000    -0.459000000
H    -0.752000000     5.740000000    -0.077000000
C     2.111000000     7.526000000     0.023000000
H     2.786000000     7.939000000     0.768000000
C     2.345000000     7.842000000    -1.372000000
H     3.150000000     8.468000000    -1.748000000
C     1.438000000     7.264000000    -2.257000000
H     1.506000000     7.486000000    -3.318000000
C     0.377000000     6.461000000    -1.827000000
O    -0.589000000     6.070000000    -2.739000000
C    -0.592000000     4.909000000    -3.479000000
C    -1.744000000     4.498000000    -4.066000000
H    -2.617000000     5.139000000    -3.977000000
C    -1.887000000     3.227000000    -4.553000000
O    -3.144000000     2.864000000    -5.060000000
C    -3.505000000     1.669000000    -5.616000000
C    -3.172000000     1.346000000    -6.945000000
H    -2.659000000     2.051000000    -7.595000000
C    -3.539000000     0.128000000    -7.580000000
H    -3.414000000    -0.098000000    -8.636000000
C    -4.267000000    -0.764000000    -6.799000000
H    -4.403000000    -1.774000000    -7.176000000
C    -4.530000000    -0.481000000    -5.460000000
C    -4.134000000     0.700000000    -4.902000000
H    -4.491000000     0.852000000    -3.887000000
O    -9.013000000     1.667000000    -1.573000000
H    -8.122000000     1.735000000    -1.917000000
H    -9.022000000     0.839000000    -1.093000000
O    -1.818000000     6.586000000     2.626000000
H    -0.908000000     6.754000000     2.379000000
H    -1.928000000     5.643000000     2.508000000
O    -3.773000000     7.449000000    -2.438000000
H    -3.317000000     6.652000000    -2.170000000
H    -3.787000000     7.994000000    -1.651000000
O    -8.172000000    -0.873000000    -0.497000000
H    -7.492000000    -0.501000000    -1.059000000
H    -7.711000000    -1.124000000     0.303000000
O    -3.769000000     5.211000000    -0.958000000
H    -3.785000000     4.258000000    -0.862000000
H    -4.195000000     5.538000000    -0.166000000
O    -6.961000000     3.193000000     0.507000000
H    -7.707000000     2.756000000     0.097000000
H    -6.195000000     2.744000000     0.148000000
O    -2.702000000     3.715000000     1.868000000
H    -2.207000000     2.896000000     1.833000000
H    -3.471000000     3.554000000     1.322000000
O    -7.179000000     7.464000000     0.132000000
H    -7.221000000     7.808000000    -0.760000000
H    -6.256000000     7.247000000     0.262000000
O    -8.625000000    -1.737000000     3.301000000
H    -8.161000000    -1.047000000     2.828000000
H    -8.792000000    -2.410000000     2.641000000
O    -7.451000000     4.848000000     2.738000000
H    -6.807000000     4.323000000     2.262000000
H    -8.076000000     5.125000000     2.068000000
O    -6.446000000     1.163000000    -2.201000000
H    -5.998000000     0.866000000    -1.409000000
H    -6.037000000     2.004000000    -2.406000000
O    -6.747000000     0.643000000     5.250000000
H    -6.256000000     1.103000000     5.930000000
H    -7.284000000     1.322000000     4.841000000
O    -8.637000000     5.108000000    -1.423000000
H    -8.328000000     4.262000000    -1.098000000
H    -8.942000000     4.927000000    -2.312000000
O    -4.579000000     4.864000000    -6.119000000
H    -4.077000000     5.315000000    -6.798000000
H    -3.924000000     4.375000000    -5.622000000
O    -6.304000000     3.948000000    -2.750000000
H    -6.681000000     4.762000000    -3.085000000
H    -5.547000000     4.229000000    -2.236000000
O    -4.891000000     6.434000000     1.176000000
H    -4.152000000     7.002000000     1.394000000
H    -5.176000000     6.079000000     2.018000000
O    -7.639000000     0.194000000    -4.664000000
H    -6.938000000     0.541000000    -4.112000000
H    -8.133000000     0.967000000    -4.938000000
O    -6.692000000    -0.149000000     2.022000000
H    -6.166000000     0.265000000     1.338000000
H    -6.212000000     0.027000000     2.832000000
O    -3.745000000     4.398000000     4.280000000
H    -3.496000000     4.064000000     3.417000000
H    -4.082000000     5.277000000     4.108000000
