201
-1260.08051
C    -0.346000000    -0.522000000     5.128000000
H     0.515000000     0.098000000     4.890000000
C    -0.438000000    -1.781000000     4.556000000
C    -1.643000000    -2.448000000     4.710000000
H    -1.730000000    -3.473000000     4.357000000
C     0.646000000    -2.239000000     3.624000000
O     1.876000000    -1.836000000     4.127000000
H     0.555000000    -1.771000000     2.633000000
O     0.644000000    -3.682000000     3.522000000
C     0.819000000    -4.191000000     2.282000000
C    -0.295000000    -4.410000000     1.458000000
H    -1.280000000    -4.220000000     1.877000000
C    -0.182000000    -4.681000000     0.046000000
O    -1.277000000    -4.760000000    -0.740000000
C     1.078000000    -4.678000000    -0.575000000
C     1.293000000    -5.100000000    -2.054000000
H     2.302000000    -5.447000000    -2.286000000
C     1.175000000    -3.793000000    -2.915000000
C     2.365000000    -3.088000000    -3.333000000
H     3.338000000    -3.536000000    -3.147000000
H     0.564000000    -5.872000000    -2.309000000
C     2.202000000    -4.556000000     0.271000000
H     3.168000000    -4.674000000    -0.214000000
C     2.093000000    -4.336000000     1.651000000
C     3.251000000    -3.854000000     2.369000000
H     4.114000000    -4.470000000     2.107000000
H     3.146000000    -4.055000000     3.437000000
C     3.543000000    -2.313000000     2.358000000
C     4.396000000    -1.738000000     1.420000000
H     4.911000000    -2.350000000     0.684000000
C     2.854000000    -1.401000000     3.196000000
C     3.172000000    -0.021000000     3.183000000
H     2.683000000     0.632000000     3.901000000
C     3.920000000     0.563000000     2.176000000
O     3.995000000     1.941000000     2.124000000
C     3.329000000     2.547000000     0.976000000
C     2.595000000     3.861000000     1.359000000
C     2.322000000     4.892000000     0.389000000
H     2.789000000     4.801000000    -0.588000000
C     2.050000000     3.844000000     2.671000000
H     2.260000000     3.047000000     3.380000000
O     4.177000000     2.845000000    -0.160000000
H     2.579000000     1.811000000     0.653000000
C     4.593000000    -0.320000000     1.320000000
C     5.444000000     0.171000000     0.171000000
H     6.153000000    -0.604000000    -0.128000000
H     5.988000000     1.016000000     0.598000000
C     4.661000000     0.602000000    -1.053000000
C     4.332000000    -0.284000000    -2.056000000
H     4.651000000    -1.321000000    -1.995000000
C     4.194000000     1.910000000    -1.139000000
C     3.500000000     2.352000000    -2.235000000
H     3.146000000     3.379000000    -2.276000000
C     3.255000000     1.446000000    -3.315000000
O     2.281000000     1.772000000    -4.262000000
C     0.952000000     1.198000000    -3.898000000
C    -0.222000000     2.175000000    -4.212000000
C     0.014000000     3.544000000    -4.043000000
H     1.000000000     3.809000000    -3.671000000
C    -1.494000000     1.663000000    -4.516000000
H    -1.687000000     0.593000000    -4.496000000
O     0.749000000    -0.008000000    -4.610000000
H     0.860000000     0.883000000    -2.848000000
C     3.639000000     0.109000000    -3.197000000
C     3.430000000    -0.984000000    -4.273000000
H     4.324000000    -1.611000000    -4.302000000
H     3.164000000    -0.542000000    -5.235000000
C     2.219000000    -1.783000000    -3.916000000
C     0.973000000    -1.237000000    -4.075000000
C    -0.153000000    -1.938000000    -3.683000000
H    -1.141000000    -1.496000000    -3.785000000
C    -0.059000000    -3.148000000    -3.085000000
O    -1.333000000    -3.659000000    -2.813000000
C    -1.705000000    -3.570000000    -1.423000000
H    -1.107000000    -2.765000000    -0.972000000
C    -3.202000000    -3.303000000    -1.287000000
C    -3.839000000    -3.570000000    -0.108000000
H    -3.300000000    -4.160000000     0.629000000
C    -3.854000000    -2.533000000    -2.221000000
H    -3.316000000    -2.126000000    -3.073000000
C    -5.202000000    -2.204000000    -2.057000000
O    -5.885000000    -1.564000000    -3.060000000
C    -5.859000000    -2.615000000    -0.901000000
H    -6.894000000    -2.388000000    -0.659000000
C    -5.146000000    -3.225000000     0.113000000
O    -5.795000000    -3.434000000     1.318000000
C    -5.203000000    -3.968000000     2.421000000
C    -4.900000000    -3.064000000     3.421000000
H    -4.958000000    -1.991000000     3.262000000
C    -5.121000000    -5.378000000     2.579000000
H    -5.343000000    -6.044000000     1.749000000
C    -4.618000000    -5.884000000     3.792000000
H    -4.450000000    -6.945000000     3.959000000
C    -4.172000000    -4.975000000     4.762000000
H    -3.677000000    -5.277000000     5.682000000
C    -4.281000000    -3.547000000     4.555000000
O    -3.900000000    -2.574000000     5.494000000
C    -2.644000000    -2.007000000     5.511000000
C    -2.446000000    -0.804000000     6.160000000
H    -3.368000000    -0.447000000     6.611000000
C    -1.329000000    -0.067000000     5.981000000
O    -1.377000000     1.211000000     6.484000000
C    -0.315000000     2.122000000     6.331000000
C    -0.458000000     3.099000000     5.380000000
H    -1.368000000     3.202000000     4.796000000
C     0.798000000     2.072000000     7.171000000
H     0.836000000     1.279000000     7.913000000
C     1.801000000     3.053000000     7.085000000
H     2.656000000     3.102000000     7.755000000
C     1.703000000     4.061000000     6.092000000
H     2.453000000     4.835000000     5.950000000
C     0.576000000     4.040000000     5.254000000
O     0.562000000     4.940000000     4.227000000
C     1.246000000     4.881000000     3.048000000
C     0.963000000     5.889000000     2.124000000
H     0.221000000     6.638000000     2.389000000
C     1.452000000     5.897000000     0.836000000
O     1.242000000     6.970000000    -0.017000000
C     1.395000000     6.948000000    -1.424000000
C     0.347000000     6.321000000    -2.067000000
H    -0.369000000     5.788000000    -1.447000000
C     2.296000000     7.705000000    -2.161000000
H     3.074000000     8.177000000    -1.566000000
C     2.168000000     7.790000000    -3.586000000
H     2.857000000     8.491000000    -4.048000000
C     1.119000000     7.115000000    -4.209000000
H     0.980000000     7.233000000    -5.280000000
C     0.203000000     6.374000000    -3.462000000
O    -0.872000000     5.831000000    -4.072000000
C    -1.057000000     4.490000000    -4.162000000
C    -2.304000000     3.918000000    -4.510000000
H    -3.127000000     4.573000000    -4.784000000
C    -2.546000000     2.522000000    -4.700000000
O    -3.731000000     2.190000000    -5.196000000
C    -4.229000000     0.929000000    -5.249000000
C    -3.843000000     0.154000000    -6.309000000
H    -3.295000000     0.644000000    -7.109000000
C    -4.271000000    -1.196000000    -6.381000000
H    -4.003000000    -1.800000000    -7.245000000
C    -4.958000000    -1.748000000    -5.291000000
H    -5.328000000    -2.764000000    -5.407000000
C    -5.229000000    -1.025000000    -4.167000000
C    -4.847000000     0.323000000    -4.139000000
H    -4.923000000     0.897000000    -3.219000000
O   -10.362000000     2.467000000     0.511000000
H    -9.707000000     1.966000000     0.024000000
H    -9.956000000     2.628000000     1.362000000
O    -4.454000000     7.916000000     0.477000000
H    -3.935000000     7.763000000    -0.312000000
H    -5.278000000     7.458000000     0.314000000
O    -3.186000000     7.904000000    -2.983000000
H    -3.456000000     7.330000000    -2.265000000
H    -2.442000000     7.455000000    -3.383000000
O    -8.337000000     0.133000000    -2.844000000
H    -8.445000000     0.186000000    -3.793000000
H    -7.505000000    -0.325000000    -2.723000000
O    -4.042000000     5.860000000    -1.688000000
H    -4.002000000     5.072000000    -1.146000000
H    -4.970000000     5.958000000    -1.901000000
O    -6.956000000     3.710000000     0.560000000
H    -6.153000000     3.556000000     0.062000000
H    -7.584000000     3.083000000     0.202000000
O    -3.228000000     3.981000000     2.278000000
H    -2.724000000     4.795000000     2.279000000
H    -3.499000000     3.869000000     1.366000000
O    -8.903000000    -1.510000000     1.173000000
H    -9.448000000    -0.827000000     1.563000000
H    -8.099000000    -1.057000000     0.917000000
O    -8.055000000     1.208000000    -0.382000000
H    -7.099000000     1.216000000    -0.339000000
H    -8.253000000     0.832000000    -1.240000000
O    -7.072000000     1.246000000     4.234000000
H    -6.380000000     1.870000000     4.014000000
H    -7.410000000     1.551000000     5.076000000
O    -8.531000000     3.272000000    -3.204000000
H    -8.701000000     2.344000000    -3.047000000
H    -7.607000000     3.387000000    -2.983000000
O    -7.571000000     6.203000000    -3.839000000
H    -6.791000000     5.767000000    -4.181000000
H    -8.040000000     5.516000000    -3.364000000
O    -5.605000000     4.805000000    -5.494000000
H    -5.005000000     5.395000000    -5.950000000
H    -5.948000000     4.235000000    -6.182000000
O    -5.919000000     3.520000000    -2.884000000
H    -5.217000000     3.514000000    -3.535000000
H    -5.511000000     3.181000000    -2.088000000
O    -7.705000000    -1.573000000     3.993000000
H    -7.498000000    -0.643000000     3.902000000
H    -7.973000000    -1.846000000     3.115000000
O    -6.830000000     5.166000000     2.961000000
H    -7.000000000     4.568000000     2.233000000
H    -7.277000000     5.976000000     2.715000000
O    -6.719000000     6.324000000    -0.171000000
H    -6.710000000     5.367000000    -0.174000000
H    -7.544000000     6.555000000     0.254000000
O    -6.508000000     0.196000000     1.658000000
H    -6.078000000     0.793000000     1.046000000
H    -6.658000000     0.724000000     2.442000000
O    -5.223000000     3.467000000     4.335000000
H    -4.483000000     3.619000000     3.747000000
H    -5.893000000     4.085000000     4.042000000
