201
-1275.38248
C    -1.542000000    -0.201000000     4.665000000
H    -0.583000000     0.262000000     4.881000000
C    -1.423000000    -1.396000000     3.905000000
C    -2.618000000    -2.053000000     3.634000000
H    -2.607000000    -3.027000000     3.151000000
C    -0.109000000    -2.059000000     3.585000000
O     0.937000000    -1.686000000     4.532000000
H     0.188000000    -1.716000000     2.583000000
O    -0.211000000    -3.457000000     3.388000000
C     0.375000000    -3.991000000     2.247000000
C    -0.437000000    -4.222000000     1.173000000
H    -1.496000000    -4.049000000     1.349000000
C     0.092000000    -4.586000000    -0.068000000
O    -0.801000000    -4.811000000    -1.143000000
C     1.479000000    -4.648000000    -0.249000000
C     2.087000000    -4.886000000    -1.647000000
H     3.127000000    -5.201000000    -1.538000000
C     2.065000000    -3.690000000    -2.625000000
C     3.199000000    -2.828000000    -2.561000000
H     3.954000000    -3.086000000    -1.822000000
H     1.603000000    -5.708000000    -2.179000000
C     2.329000000    -4.275000000     0.817000000
H     3.412000000    -4.312000000     0.742000000
C     1.813000000    -3.920000000     2.055000000
C     2.750000000    -3.584000000     3.186000000
H     3.687000000    -4.071000000     2.907000000
H     2.386000000    -4.058000000     4.099000000
C     2.964000000    -2.030000000     3.229000000
C     4.101000000    -1.527000000     2.624000000
H     4.764000000    -2.147000000     2.026000000
C     2.109000000    -1.233000000     3.995000000
C     2.331000000     0.126000000     4.119000000
H     1.664000000     0.743000000     4.715000000
C     3.366000000     0.730000000     3.420000000
O     3.302000000     2.096000000     3.401000000
C     2.815000000     2.678000000     2.154000000
C     1.945000000     3.952000000     2.419000000
C     1.756000000     4.908000000     1.344000000
H     2.186000000     4.795000000     0.353000000
C     1.180000000     4.062000000     3.587000000
H     1.260000000     3.209000000     4.255000000
O     3.895000000     3.047000000     1.338000000
H     2.224000000     1.872000000     1.695000000
C     4.234000000    -0.098000000     2.693000000
C     5.315000000     0.526000000     1.760000000
H     6.202000000    -0.103000000     1.663000000
H     5.712000000     1.367000000     2.334000000
C     4.802000000     0.896000000     0.424000000
C     4.914000000     0.019000000    -0.692000000
H     5.385000000    -0.946000000    -0.524000000
C     4.175000000     2.184000000     0.293000000
C     3.624000000     2.457000000    -1.004000000
H     3.053000000     3.376000000    -1.112000000
C     3.636000000     1.563000000    -2.026000000
O     2.867000000     1.897000000    -3.165000000
C     1.679000000     1.130000000    -3.579000000
C     0.631000000     2.014000000    -4.201000000
C     0.366000000     3.209000000    -3.564000000
H     0.896000000     3.515000000    -2.666000000
C    -0.210000000     1.522000000    -5.183000000
H     0.047000000     0.652000000    -5.783000000
O     1.983000000     0.048000000    -4.477000000
H     1.252000000     0.748000000    -2.640000000
C     4.309000000     0.326000000    -1.916000000
C     4.405000000    -0.708000000    -3.097000000
H     5.222000000    -1.427000000    -3.004000000
H     4.634000000    -0.193000000    -4.032000000
C     3.201000000    -1.572000000    -3.208000000
C     2.072000000    -1.237000000    -3.922000000
C     0.954000000    -2.003000000    -3.950000000
H     0.088000000    -1.684000000    -4.524000000
C     0.937000000    -3.265000000    -3.341000000
O    -0.258000000    -3.900000000    -3.179000000
C    -0.950000000    -3.599000000    -1.961000000
H    -0.394000000    -2.812000000    -1.432000000
C    -2.423000000    -3.277000000    -2.247000000
C    -3.405000000    -3.469000000    -1.321000000
H    -3.145000000    -3.850000000    -0.337000000
C    -2.839000000    -2.822000000    -3.543000000
H    -2.115000000    -2.768000000    -4.352000000
C    -4.212000000    -2.591000000    -3.798000000
O    -4.680000000    -2.220000000    -5.070000000
C    -5.167000000    -2.880000000    -2.810000000
H    -6.220000000    -2.622000000    -2.880000000
C    -4.770000000    -3.289000000    -1.545000000
O    -5.684000000    -3.757000000    -0.561000000
C    -5.403000000    -4.081000000     0.771000000
C    -5.224000000    -3.064000000     1.689000000
H    -5.387000000    -2.027000000     1.405000000
C    -5.377000000    -5.374000000     1.183000000
H    -5.590000000    -6.187000000     0.495000000
C    -5.165000000    -5.684000000     2.553000000
H    -5.222000000    -6.718000000     2.884000000
C    -5.012000000    -4.691000000     3.490000000
H    -4.885000000    -4.854000000     4.557000000
C    -5.089000000    -3.354000000     3.055000000
O    -5.042000000    -2.336000000     3.984000000
C    -3.850000000    -1.645000000     4.127000000
C    -3.952000000    -0.376000000     4.708000000
H    -4.922000000     0.029000000     4.986000000
C    -2.764000000     0.321000000     5.086000000
O    -2.844000000     1.492000000     5.706000000
C    -1.771000000     2.242000000     6.080000000
C    -1.551000000     3.362000000     5.309000000
H    -2.133000000     3.598000000     4.422000000
C    -1.022000000     2.000000000     7.233000000
H    -1.200000000     1.149000000     7.886000000
C    -0.019000000     2.916000000     7.614000000
H     0.507000000     2.646000000     8.526000000
C     0.144000000     4.122000000     6.925000000
H     0.922000000     4.839000000     7.173000000
C    -0.587000000     4.318000000     5.793000000
O    -0.335000000     5.375000000     4.959000000
C     0.379000000     5.194000000     3.805000000
C     0.321000000     6.210000000     2.805000000
H    -0.155000000     7.171000000     2.982000000
C     1.031000000     6.056000000     1.632000000
O     0.857000000     7.052000000     0.689000000
C     0.870000000     6.817000000    -0.646000000
C    -0.185000000     6.052000000    -1.278000000
H    -0.917000000     5.510000000    -0.685000000
C     1.909000000     7.333000000    -1.376000000
H     2.644000000     7.974000000    -0.896000000
C     1.938000000     7.093000000    -2.715000000
H     2.879000000     7.359000000    -3.188000000
C     0.895000000     6.512000000    -3.435000000
H     0.959000000     6.510000000    -4.520000000
C    -0.165000000     5.863000000    -2.675000000
O    -1.100000000     5.164000000    -3.366000000
C    -0.727000000     3.980000000    -4.002000000
C    -1.601000000     3.454000000    -4.986000000
H    -2.520000000     3.977000000    -5.238000000
C    -1.363000000     2.227000000    -5.622000000
O    -2.205000000     1.667000000    -6.555000000
C    -2.443000000     0.307000000    -6.675000000
C    -1.821000000    -0.495000000    -7.675000000
H    -1.133000000    -0.023000000    -8.371000000
C    -2.132000000    -1.806000000    -7.730000000
H    -1.714000000    -2.344000000    -8.577000000
C    -3.056000000    -2.389000000    -6.846000000
H    -3.223000000    -3.449000000    -7.023000000
C    -3.737000000    -1.616000000    -5.896000000
C    -3.415000000    -0.235000000    -5.779000000
H    -3.866000000     0.453000000    -5.069000000
O    -2.571000000     5.842000000     1.684000000
H    -1.677000000     5.525000000     1.806000000
H    -3.106000000     5.048000000     1.666000000
O    -3.866000000     3.551000000    -2.793000000
H    -3.270000000     4.241000000    -3.086000000
H    -4.573000000     3.556000000    -3.439000000
O    -6.885000000     2.450000000    -1.167000000
H    -6.380000000     2.099000000    -0.433000000
H    -6.584000000     1.949000000    -1.926000000
O    -3.840000000     8.096000000     1.079000000
H    -4.674000000     7.790000000     1.437000000
H    -3.277000000     7.322000000     1.092000000
O    -9.577000000     2.817000000    -2.369000000
H    -8.622000000     2.847000000    -2.308000000
H    -9.846000000     2.258000000    -1.639000000
O    -6.047000000     3.045000000     3.531000000
H    -6.663000000     3.682000000     3.168000000
H    -5.343000000     2.998000000     2.884000000
O    -6.844000000    -0.803000000    -0.460000000
H    -6.271000000    -0.385000000     0.182000000
H    -6.737000000    -0.279000000    -1.254000000
O    -7.038000000     1.464000000     5.541000000
H    -6.604000000     2.173000000     5.066000000
H    -7.820000000     1.870000000     5.914000000
O    -5.982000000     4.824000000    -0.060000000
H    -6.453000000     4.179000000    -0.587000000
H    -5.382000000     4.304000000     0.474000000
O    -4.173000000     6.719000000    -1.524000000
H    -3.660000000     7.224000000    -0.894000000
H    -4.565000000     6.017000000    -1.005000000
O    -3.228000000     0.982000000    -2.298000000
H    -2.649000000     0.952000000    -1.536000000
H    -3.269000000     1.909000000    -2.531000000
O    -4.605000000     4.992000000     5.071000000
H    -4.935000000     4.217000000     4.616000000
H    -5.087000000     5.006000000     5.899000000
O    -5.194000000     7.042000000     3.227000000
H    -6.124000000     7.203000000     3.070000000
H    -5.173000000     6.234000000     3.740000000
O    -5.966000000     0.464000000    -2.646000000
H    -5.038000000     0.372000000    -2.430000000
H    -6.092000000    -0.102000000    -3.408000000
O    -7.968000000     5.531000000     4.730000000
H    -7.820000000     5.330000000     3.806000000
H    -8.104000000     4.679000000     5.143000000
O    -9.298000000     2.658000000     1.788000000
H    -9.245000000     2.087000000     2.555000000
H    -9.243000000     2.062000000     1.041000000
O    -7.560000000     4.747000000     2.156000000
H    -7.163000000     4.807000000     1.287000000
H    -8.212000000     4.051000000     2.075000000
O    -8.552000000    -1.510000000     2.702000000
H    -8.075000000    -0.783000000     2.300000000
H    -7.958000000    -1.844000000     3.374000000
O    -6.980000000     0.791000000     2.238000000
H    -6.241000000     1.071000000     1.697000000
H    -6.930000000     1.347000000     3.016000000
