201
-1246.65910
C    -2.278000000     2.332000000     4.676000000
H    -1.396000000     2.956000000     4.799000000
C    -2.084000000     0.941000000     4.546000000
C    -3.189000000     0.085000000     4.492000000
H    -3.120000000    -0.999000000     4.449000000
C    -0.717000000     0.380000000     4.373000000
O     0.274000000     1.071000000     5.132000000
H    -0.360000000     0.460000000     3.336000000
O    -0.723000000    -1.027000000     4.738000000
C     0.036000000    -1.881000000     3.889000000
C    -0.657000000    -2.809000000     3.149000000
H    -1.740000000    -2.862000000     3.233000000
C    -0.018000000    -3.698000000     2.316000000
O    -0.715000000    -4.500000000     1.346000000
C     1.359000000    -3.789000000     2.312000000
C     2.010000000    -4.884000000     1.463000000
H     2.946000000    -5.023000000     2.008000000
C     2.311000000    -4.351000000     0.100000000
C     3.440000000    -3.543000000    -0.129000000
H     4.212000000    -3.515000000     0.636000000
H     1.419000000    -5.797000000     1.562000000
C     2.043000000    -3.027000000     3.222000000
H     3.105000000    -3.196000000     3.381000000
C     1.449000000    -2.020000000     4.020000000
C     2.160000000    -1.133000000     5.007000000
H     3.090000000    -1.613000000     5.319000000
H     1.584000000    -1.023000000     5.928000000
C     2.372000000     0.268000000     4.426000000
C     3.548000000     0.466000000     3.668000000
H     4.260000000    -0.355000000     3.639000000
C     1.443000000     1.324000000     4.448000000
C     1.624000000     2.563000000     3.725000000
H     0.912000000     3.382000000     3.779000000
C     2.809000000     2.682000000     2.996000000
O     2.939000000     3.717000000     2.111000000
C     2.614000000     3.469000000     0.747000000
C     1.755000000     4.585000000     0.203000000
C     1.918000000     4.933000000    -1.181000000
H     2.790000000     4.636000000    -1.758000000
C     0.615000000     4.981000000     0.904000000
H     0.417000000     4.540000000     1.878000000
O     3.900000000     3.232000000     0.064000000
H     2.122000000     2.486000000     0.710000000
C     3.691000000     1.577000000     2.842000000
C     4.970000000     1.512000000     2.009000000
H     5.729000000     0.927000000     2.533000000
H     5.411000000     2.511000000     2.005000000
C     4.688000000     1.056000000     0.609000000
C     4.945000000    -0.275000000     0.233000000
H     5.392000000    -0.965000000     0.944000000
C     4.199000000     1.980000000    -0.354000000
C     3.809000000     1.607000000    -1.613000000
H     3.432000000     2.262000000    -2.395000000
C     3.902000000     0.214000000    -1.941000000
O     3.366000000    -0.118000000    -3.135000000
C     2.296000000    -1.112000000    -3.295000000
C     1.266000000    -0.711000000    -4.356000000
C     1.057000000     0.639000000    -4.569000000
H     1.595000000     1.408000000    -4.021000000
C     0.461000000    -1.638000000    -5.032000000
H     0.448000000    -2.704000000    -4.819000000
O     2.811000000    -2.442000000    -3.545000000
H     1.608000000    -1.095000000    -2.437000000
C     4.508000000    -0.687000000    -1.071000000
C     4.922000000    -2.088000000    -1.600000000
H     5.692000000    -2.491000000    -0.938000000
H     5.323000000    -2.160000000    -2.613000000
C     3.716000000    -3.007000000    -1.404000000
C     2.811000000    -3.238000000    -2.414000000
C     1.679000000    -4.003000000    -2.221000000
H     0.857000000    -4.032000000    -2.932000000
C     1.450000000    -4.580000000    -0.990000000
O     0.147000000    -5.018000000    -0.729000000
C    -0.684000000    -4.067000000     0.008000000
H    -0.181000000    -3.089000000     0.037000000
C    -2.095000000    -3.916000000    -0.654000000
C    -3.062000000    -3.174000000     0.027000000
H    -2.885000000    -2.701000000     0.990000000
C    -2.458000000    -4.514000000    -1.843000000
H    -1.718000000    -5.064000000    -2.419000000
C    -3.704000000    -4.360000000    -2.445000000
O    -3.956000000    -4.935000000    -3.682000000
C    -4.681000000    -3.692000000    -1.748000000
H    -5.639000000    -3.680000000    -2.261000000
C    -4.390000000    -3.084000000    -0.470000000
O    -5.362000000    -2.437000000     0.311000000
C    -5.430000000    -2.532000000     1.677000000
C    -5.568000000    -1.355000000     2.374000000
H    -5.664000000    -0.397000000     1.871000000
C    -5.357000000    -3.743000000     2.375000000
H    -5.085000000    -4.654000000     1.848000000
C    -5.315000000    -3.752000000     3.756000000
H    -5.132000000    -4.719000000     4.217000000
C    -5.373000000    -2.562000000     4.457000000
H    -5.417000000    -2.571000000     5.543000000
C    -5.516000000    -1.340000000     3.776000000
O    -5.554000000    -0.128000000     4.414000000
C    -4.483000000     0.681000000     4.579000000
C    -4.615000000     2.043000000     4.721000000
H    -5.604000000     2.486000000     4.626000000
C    -3.547000000     2.829000000     4.660000000
O    -3.741000000     4.196000000     4.725000000
C    -2.783000000     5.117000000     4.205000000
C    -2.637000000     5.158000000     2.847000000
H    -3.195000000     4.449000000     2.241000000
C    -2.118000000     5.945000000     5.062000000
H    -2.293000000     5.970000000     6.134000000
C    -1.068000000     6.702000000     4.554000000
H    -0.443000000     7.223000000     5.275000000
C    -0.930000000     6.858000000     3.220000000
H    -0.136000000     7.483000000     2.818000000
C    -1.664000000     6.057000000     2.331000000
O    -1.489000000     6.144000000     0.990000000
C    -0.347000000     5.792000000     0.324000000
C    -0.157000000     6.174000000    -1.021000000
H    -0.784000000     6.948000000    -1.454000000
C     0.945000000     5.718000000    -1.765000000
O     1.012000000     6.073000000    -3.072000000
C     1.359000000     5.251000000    -4.107000000
C     0.528000000     4.166000000    -4.432000000
H    -0.325000000     3.902000000    -3.811000000
C     2.416000000     5.607000000    -4.981000000
H     3.043000000     6.464000000    -4.747000000
C     2.772000000     4.783000000    -6.050000000
H     3.625000000     4.976000000    -6.696000000
C     1.942000000     3.667000000    -6.334000000
H     2.116000000     3.078000000    -7.232000000
C     0.899000000     3.384000000    -5.513000000
O     0.026000000     2.478000000    -5.955000000
C     0.202000000     1.118000000    -5.608000000
C    -0.607000000     0.188000000    -6.277000000
H    -1.175000000     0.555000000    -7.127000000
C    -0.513000000    -1.139000000    -5.909000000
O    -1.205000000    -2.068000000    -6.641000000
C    -1.705000000    -3.330000000    -6.192000000
C    -1.262000000    -4.445000000    -6.839000000
H    -0.521000000    -4.287000000    -7.618000000
C    -1.789000000    -5.703000000    -6.470000000
H    -1.577000000    -6.622000000    -7.012000000
C    -2.719000000    -5.854000000    -5.466000000
H    -3.124000000    -6.798000000    -5.111000000
C    -3.093000000    -4.760000000    -4.721000000
C    -2.650000000    -3.455000000    -5.110000000
H    -3.080000000    -2.579000000    -4.631000000
O    -5.639000000     5.139000000    -5.953000000
H    -5.754000000     6.088000000    -5.911000000
H    -6.388000000     4.829000000    -6.463000000
O    -3.196000000     7.203000000    -3.479000000
H    -2.922000000     7.156000000    -4.395000000
H    -2.747000000     6.470000000    -3.057000000
O    -8.111000000     6.402000000    -2.915000000
H    -8.227000000     5.781000000    -3.634000000
H    -7.283000000     6.147000000    -2.509000000
O    -5.704000000     4.694000000    -3.077000000
H    -5.566000000     5.181000000    -3.890000000
H    -4.881000000     4.226000000    -2.936000000
O    -7.382000000     2.879000000    -2.121000000
H    -6.980000000     3.694000000    -2.421000000
H    -6.666000000     2.397000000    -1.707000000
O    -5.406000000    -0.040000000    -3.000000000
H    -4.611000000     0.194000000    -3.479000000
H    -5.594000000     0.727000000    -2.460000000
O   -10.076000000     2.790000000    -1.901000000
H    -9.149000000     2.824000000    -2.137000000
H   -10.261000000     3.654000000    -1.532000000
O    -7.569000000    -1.953000000    -3.203000000
H    -8.322000000    -1.361000000    -3.204000000
H    -6.808000000    -1.372000000    -3.184000000
O    -7.102000000     1.796000000    -4.973000000
H    -7.679000000     2.353000000    -4.452000000
H    -6.477000000     1.441000000    -4.341000000
O    -7.606000000     4.853000000     1.443000000
H    -8.003000000     4.054000000     1.096000000
H    -6.674000000     4.646000000     1.513000000
O    -3.210000000     3.949000000    -6.698000000
H    -3.562000000     3.060000000    -6.666000000
H    -3.982000000     4.509000000    -6.782000000
O    -5.007000000     7.431000000    -1.141000000
H    -5.536000000     6.639000000    -1.237000000
H    -4.222000000     7.259000000    -1.661000000
O    -1.521000000    -1.081000000    -2.223000000
H    -2.098000000    -1.626000000    -1.688000000
H    -1.365000000    -0.302000000    -1.689000000
O    -3.111000000     0.430000000    -4.428000000
H    -3.288000000     1.221000000    -3.919000000
H    -2.207000000     0.204000000    -4.212000000
O    -4.383000000     0.069000000    -7.287000000
H    -3.915000000    -0.543000000    -7.855000000
H    -3.981000000    -0.049000000    -6.426000000
O    -5.174000000     3.361000000     1.270000000
H    -4.471000000     2.776000000     1.553000000
H    -5.347000000     3.105000000     0.364000000
O    -8.219000000    -1.893000000    -0.251000000
H    -7.603000000    -1.791000000     0.475000000
H    -7.669000000    -2.118000000    -1.002000000
O    -8.773000000     2.359000000     0.748000000
H    -8.886000000     1.568000000     1.276000000
H    -9.075000000     2.109000000    -0.125000000
O    -2.546000000     4.888000000    -2.509000000
H    -2.180000000     4.774000000    -1.632000000
H    -2.993000000     4.061000000    -2.691000000
