201
-1231.66268
C    -0.553000000     2.123000000     4.557000000
H     0.436000000     2.517000000     4.775000000
C    -0.786000000     0.814000000     4.195000000
C    -2.104000000     0.473000000     3.810000000
H    -2.242000000    -0.554000000     3.483000000
C     0.343000000    -0.123000000     3.927000000
O     1.672000000     0.196000000     4.574000000
H     0.391000000    -0.209000000     2.831000000
O     0.116000000    -1.429000000     4.456000000
C     0.265000000    -2.512000000     3.679000000
C    -0.827000000    -3.098000000     3.087000000
H    -1.833000000    -2.822000000     3.393000000
C    -0.660000000    -3.875000000     1.949000000
O    -1.818000000    -4.261000000     1.249000000
C     0.596000000    -4.396000000     1.697000000
C     0.841000000    -5.440000000     0.617000000
H     1.768000000    -5.991000000     0.789000000
C     0.831000000    -4.720000000    -0.744000000
C     2.095000000    -4.345000000    -1.307000000
H     3.004000000    -4.536000000    -0.742000000
H     0.037000000    -6.179000000     0.600000000
C     1.642000000    -3.994000000     2.428000000
H     2.649000000    -4.391000000     2.331000000
C     1.528000000    -3.003000000     3.455000000
C     2.763000000    -2.516000000     4.160000000
H     3.575000000    -3.240000000     4.257000000
H     2.430000000    -2.326000000     5.182000000
C     3.292000000    -1.263000000     3.520000000
C     4.321000000    -1.305000000     2.602000000
H     4.580000000    -2.334000000     2.367000000
C     2.872000000     0.006000000     3.895000000
C     3.334000000     1.152000000     3.304000000
H     2.918000000     2.117000000     3.582000000
C     4.152000000     1.063000000     2.217000000
O     4.385000000     2.188000000     1.490000000
C     3.554000000     2.459000000     0.320000000
C     3.002000000     3.856000000     0.227000000
C     2.609000000     4.316000000    -0.991000000
H     2.958000000     3.794000000    -1.877000000
C     2.832000000     4.586000000     1.385000000
H     3.163000000     4.238000000     2.360000000
O     4.317000000     2.090000000    -0.810000000
H     2.701000000     1.768000000     0.378000000
C     4.645000000    -0.153000000     1.819000000
C     5.598000000    -0.294000000     0.611000000
H     6.074000000    -1.276000000     0.648000000
H     6.383000000     0.464000000     0.570000000
C     4.877000000    -0.313000000    -0.784000000
C     4.598000000    -1.562000000    -1.294000000
H     4.938000000    -2.452000000    -0.770000000
C     4.381000000     0.807000000    -1.354000000
C     3.520000000     0.603000000    -2.413000000
H     2.930000000     1.442000000    -2.772000000
C     3.311000000    -0.598000000    -3.004000000
O     2.484000000    -0.600000000    -4.083000000
C     1.087000000    -1.047000000    -3.895000000
C     0.109000000    -0.116000000    -4.593000000
C     0.531000000     1.116000000    -5.090000000
H     1.550000000     1.495000000    -5.076000000
C    -1.271000000    -0.510000000    -4.659000000
H    -1.554000000    -1.504000000    -4.324000000
O     0.969000000    -2.454000000    -4.185000000
H     0.870000000    -0.941000000    -2.822000000
C     3.905000000    -1.735000000    -2.508000000
C     3.464000000    -3.114000000    -3.011000000
H     4.184000000    -3.927000000    -2.895000000
H     3.489000000    -3.123000000    -4.102000000
C     2.058000000    -3.607000000    -2.465000000
C     0.868000000    -3.350000000    -3.176000000
C    -0.300000000    -3.848000000    -2.674000000
H    -1.226000000    -3.649000000    -3.207000000
C    -0.348000000    -4.524000000    -1.494000000
O    -1.588000000    -4.779000000    -0.984000000
C    -2.083000000    -3.733000000    -0.068000000
H    -1.509000000    -2.816000000    -0.266000000
C    -3.547000000    -3.538000000    -0.237000000
C    -4.369000000    -3.197000000     0.802000000
H    -3.927000000    -3.064000000     1.786000000
C    -4.064000000    -3.431000000    -1.520000000
H    -3.323000000    -3.464000000    -2.315000000
C    -5.392000000    -3.105000000    -1.734000000
O    -6.006000000    -3.246000000    -3.015000000
C    -6.283000000    -3.041000000    -0.629000000
H    -7.340000000    -2.961000000    -0.866000000
C    -5.780000000    -2.982000000     0.639000000
O    -6.569000000    -2.534000000     1.799000000
C    -5.837000000    -2.099000000     2.884000000
C    -5.704000000    -0.707000000     3.015000000
H    -5.939000000    -0.020000000     2.206000000
C    -5.373000000    -2.932000000     3.919000000
H    -5.606000000    -3.991000000     4.000000000
C    -4.751000000    -2.363000000     5.021000000
H    -4.379000000    -2.941000000     5.863000000
C    -4.550000000    -1.007000000     5.103000000
H    -3.937000000    -0.558000000     5.881000000
C    -5.023000000    -0.175000000     4.074000000
O    -4.566000000     1.104000000     4.057000000
C    -3.198000000     1.346000000     4.139000000
C    -2.934000000     2.610000000     4.502000000
H    -3.762000000     3.305000000     4.611000000
C    -1.575000000     2.992000000     4.745000000
O    -1.358000000     4.332000000     5.106000000
C    -0.193000000     5.034000000     4.992000000
C     0.237000000     5.573000000     3.749000000
H    -0.416000000     5.560000000     2.880000000
C     0.718000000     4.976000000     6.083000000
H     0.467000000     4.466000000     7.010000000
C     1.979000000     5.549000000     5.940000000
H     2.722000000     5.470000000     6.729000000
C     2.340000000     6.067000000     4.694000000
H     3.250000000     6.660000000     4.720000000
C     1.538000000     5.991000000     3.586000000
O     1.963000000     6.570000000     2.453000000
C     2.078000000     5.803000000     1.370000000
C     1.615000000     6.191000000     0.096000000
H     1.090000000     7.140000000     0.023000000
C     1.903000000     5.477000000    -1.088000000
O     1.575000000     6.048000000    -2.312000000
C     1.765000000     5.458000000    -3.538000000
C     0.705000000     4.674000000    -4.029000000
H    -0.232000000     4.525000000    -3.499000000
C     2.905000000     5.701000000    -4.310000000
H     3.719000000     6.253000000    -3.848000000
C     2.958000000     5.217000000    -5.594000000
H     3.896000000     5.296000000    -6.138000000
C     1.930000000     4.368000000    -6.062000000
H     1.974000000     3.989000000    -7.080000000
C     0.874000000     4.043000000    -5.268000000
O    -0.225000000     3.358000000    -5.753000000
C    -0.443000000     2.080000000    -5.465000000
C    -1.776000000     1.665000000    -5.560000000
H    -2.577000000     2.369000000    -5.769000000
C    -2.165000000     0.318000000    -5.237000000
O    -3.495000000    -0.020000000    -5.524000000
C    -4.048000000    -1.216000000    -5.367000000
C    -3.902000000    -2.185000000    -6.367000000
H    -3.321000000    -2.007000000    -7.268000000
C    -4.402000000    -3.501000000    -6.265000000
H    -4.179000000    -4.196000000    -7.072000000
C    -5.235000000    -3.815000000    -5.208000000
H    -5.570000000    -4.816000000    -4.945000000
C    -5.340000000    -2.853000000    -4.168000000
C    -4.733000000    -1.581000000    -4.262000000
H    -4.985000000    -0.826000000    -3.522000000
O    -5.003000000     2.651000000    -3.959000000
H    -4.698000000     1.848000000    -4.380000000
H    -4.405000000     2.778000000    -3.222000000
O    -9.325000000     1.129000000     2.140000000
H    -8.482000000     1.350000000     2.535000000
H    -9.450000000     1.787000000     1.457000000
O    -5.753000000     7.198000000     1.898000000
H    -5.522000000     6.864000000     2.765000000
H    -5.892000000     6.413000000     1.368000000
O    -6.360000000     2.635000000     1.954000000
H    -5.816000000     2.553000000     2.737000000
H    -5.771000000     2.425000000     1.229000000
O    -6.176000000     5.292000000    -4.728000000
H    -5.681000000     4.552000000    -4.375000000
H    -6.269000000     5.095000000    -5.660000000
O    -2.940000000     8.799000000    -0.965000000
H    -3.144000000     9.101000000    -0.080000000
H    -3.094000000     7.855000000    -0.938000000
O    -7.068000000     0.331000000    -4.395000000
H    -7.323000000     0.020000000    -3.526000000
H    -7.050000000     1.284000000    -4.313000000
O    -3.246000000     4.429000000     1.530000000
H    -3.781000000     3.643000000     1.420000000
H    -3.818000000     5.047000000     1.984000000
O    -8.088000000     4.636000000     1.530000000
H    -7.428000000     5.117000000     1.031000000
H    -7.669000000     3.801000000     1.739000000
O    -1.486000000     8.232000000    -3.925000000
H    -1.747000000     7.382000000    -3.569000000
H    -1.333000000     8.777000000    -3.153000000
O    -6.926000000     0.880000000    -1.191000000
H    -6.342000000     1.493000000    -0.743000000
H    -7.615000000     0.697000000    -0.552000000
O    -9.657000000     5.193000000    -1.110000000
H   -10.355000000     5.748000000    -1.459000000
H    -8.848000000     5.623000000    -1.388000000
O    -7.033000000     6.538000000    -2.248000000
H    -6.738000000     6.279000000    -3.121000000
H    -7.831000000     7.043000000    -2.404000000
O    -9.319000000     2.635000000    -0.121000000
H    -9.050000000     3.548000000    -0.024000000
H   -10.161000000     2.680000000    -0.574000000
O    -7.713000000     2.701000000    -3.206000000
H    -7.620000000     2.046000000    -2.514000000
H    -6.822000000     2.841000000    -3.525000000
O    -2.586000000     5.346000000    -2.880000000
H    -3.026000000     4.506000000    -2.750000000
H    -2.379000000     5.647000000    -1.995000000
O    -2.486000000     5.199000000    -5.907000000
H    -1.979000000     4.396000000    -5.784000000
H    -2.714000000     5.476000000    -5.019000000
O    -5.765000000     5.401000000    -0.248000000
H    -5.603000000     4.484000000    -0.468000000
H    -6.088000000     5.789000000    -1.062000000
O    -1.881000000     6.235000000    -0.318000000
H    -1.278000000     6.765000000     0.204000000
H    -2.229000000     5.591000000     0.298000000
