201
-1275.99983
C    -0.016000000     1.761000000     5.011000000
H     1.044000000     1.995000000     5.067000000
C    -0.503000000     0.457000000     4.591000000
C    -1.813000000     0.236000000     4.375000000
H    -2.085000000    -0.654000000     3.814000000
C     0.508000000    -0.621000000     4.073000000
O     1.807000000    -0.107000000     4.489000000
H     0.462000000    -0.521000000     2.979000000
O     0.253000000    -1.889000000     4.577000000
C     0.352000000    -2.907000000     3.620000000
C    -0.834000000    -3.316000000     3.005000000
H    -1.803000000    -2.869000000     3.212000000
C    -0.775000000    -4.249000000     1.966000000
O    -1.942000000    -4.545000000     1.291000000
C     0.461000000    -4.723000000     1.490000000
C     0.566000000    -5.589000000     0.210000000
H     1.492000000    -6.167000000     0.169000000
C     0.529000000    -4.751000000    -1.033000000
C     1.742000000    -4.371000000    -1.558000000
H     2.684000000    -4.749000000    -1.170000000
H    -0.223000000    -6.343000000     0.234000000
C     1.642000000    -4.378000000     2.178000000
H     2.621000000    -4.632000000     1.779000000
C     1.567000000    -3.418000000     3.221000000
C     2.823000000    -2.831000000     3.785000000
H     3.633000000    -3.562000000     3.783000000
H     2.681000000    -2.620000000     4.847000000
C     3.230000000    -1.515000000     3.046000000
C     4.120000000    -1.510000000     1.962000000
H     4.460000000    -2.461000000     1.561000000
C     2.904000000    -0.271000000     3.581000000
C     3.363000000     0.963000000     3.021000000
H     3.009000000     1.938000000     3.344000000
C     4.138000000     0.925000000     1.865000000
O     4.402000000     2.163000000     1.252000000
C     3.729000000     2.446000000     0.025000000
C     3.378000000     3.915000000     0.009000000
C     3.125000000     4.597000000    -1.213000000
H     3.463000000     4.167000000    -2.152000000
C     3.017000000     4.474000000     1.190000000
H     3.009000000     3.916000000     2.123000000
O     4.499000000     2.074000000    -1.071000000
H     2.806000000     1.851000000    -0.032000000
C     4.665000000    -0.332000000     1.382000000
C     5.665000000    -0.299000000     0.204000000
H     6.358000000    -1.141000000     0.255000000
H     6.267000000     0.612000000     0.182000000
C     4.756000000    -0.385000000    -1.057000000
C     4.446000000    -1.636000000    -1.653000000
H     4.757000000    -2.561000000    -1.173000000
C     4.248000000     0.819000000    -1.659000000
C     3.465000000     0.698000000    -2.805000000
H     3.018000000     1.615000000    -3.180000000
C     3.099000000    -0.563000000    -3.306000000
O     2.248000000    -0.590000000    -4.388000000
C     0.884000000    -0.824000000    -4.062000000
C    -0.140000000     0.116000000    -4.706000000
C     0.110000000     1.502000000    -4.728000000
H     1.069000000     1.808000000    -4.319000000
C    -1.398000000    -0.396000000    -5.106000000
H    -1.672000000    -1.442000000    -4.998000000
O     0.616000000    -2.201000000    -4.369000000
H     0.720000000    -0.728000000    -2.978000000
C     3.599000000    -1.723000000    -2.737000000
C     3.159000000    -3.048000000    -3.218000000
H     3.836000000    -3.880000000    -3.015000000
H     3.133000000    -3.052000000    -4.310000000
C     1.853000000    -3.467000000    -2.639000000
C     0.634000000    -3.086000000    -3.280000000
C    -0.637000000    -3.553000000    -2.806000000
H    -1.589000000    -3.319000000    -3.274000000
C    -0.669000000    -4.275000000    -1.599000000
O    -1.908000000    -4.602000000    -1.062000000
C    -2.327000000    -3.855000000     0.058000000
H    -1.747000000    -2.921000000     0.015000000
C    -3.817000000    -3.487000000    -0.044000000
C    -4.510000000    -3.231000000     1.135000000
H    -4.169000000    -3.462000000     2.140000000
C    -4.345000000    -3.190000000    -1.302000000
H    -3.665000000    -3.289000000    -2.144000000
C    -5.673000000    -2.802000000    -1.459000000
O    -6.213000000    -2.605000000    -2.677000000
C    -6.427000000    -2.628000000    -0.257000000
H    -7.458000000    -2.286000000    -0.285000000
C    -5.802000000    -2.717000000     0.969000000
O    -6.552000000    -2.440000000     2.132000000
C    -5.985000000    -1.984000000     3.336000000
C    -5.422000000    -0.691000000     3.447000000
H    -5.633000000    -0.091000000     2.565000000
C    -5.856000000    -2.747000000     4.505000000
H    -6.423000000    -3.665000000     4.643000000
C    -5.292000000    -2.224000000     5.682000000
H    -5.337000000    -2.819000000     6.591000000
C    -4.735000000    -0.930000000     5.714000000
H    -4.271000000    -0.551000000     6.621000000
C    -4.738000000    -0.202000000     4.527000000
O    -4.104000000     1.041000000     4.392000000
C    -2.778000000     1.194000000     4.795000000
C    -2.366000000     2.412000000     5.368000000
H    -3.091000000     3.191000000     5.591000000
C    -0.956000000     2.689000000     5.388000000
O    -0.529000000     3.893000000     5.829000000
C     0.527000000     4.579000000     5.317000000
C     0.551000000     5.061000000     3.993000000
H    -0.257000000     4.961000000     3.273000000
C     1.617000000     4.864000000     6.188000000
H     1.690000000     4.457000000     7.193000000
C     2.729000000     5.553000000     5.749000000
H     3.614000000     5.707000000     6.361000000
C     2.768000000     5.982000000     4.373000000
H     3.623000000     6.533000000     3.989000000
C     1.662000000     5.765000000     3.551000000
O     1.665000000     6.201000000     2.231000000
C     2.298000000     5.650000000     1.160000000
C     1.992000000     6.300000000    -0.054000000
H     1.432000000     7.232000000    -0.086000000
C     2.388000000     5.734000000    -1.244000000
O     2.110000000     6.331000000    -2.440000000
C     2.029000000     5.619000000    -3.666000000
C     0.789000000     5.002000000    -3.840000000
H     0.012000000     5.026000000    -3.079000000
C     3.044000000     5.622000000    -4.595000000
H     3.945000000     6.209000000    -4.435000000
C     2.875000000     5.005000000    -5.808000000
H     3.693000000     5.022000000    -6.524000000
C     1.637000000     4.324000000    -6.048000000
H     1.489000000     3.698000000    -6.924000000
C     0.637000000     4.299000000    -5.074000000
O    -0.528000000     3.712000000    -5.418000000
C    -0.782000000     2.357000000    -5.298000000
C    -2.031000000     1.955000000    -5.555000000
H    -2.708000000     2.752000000    -5.853000000
C    -2.365000000     0.536000000    -5.473000000
O    -3.697000000     0.236000000    -5.686000000
C    -4.189000000    -0.996000000    -5.369000000
C    -3.940000000    -2.078000000    -6.216000000
H    -3.430000000    -1.947000000    -7.167000000
C    -4.389000000    -3.265000000    -5.787000000
H    -4.284000000    -4.147000000    -6.413000000
C    -5.098000000    -3.453000000    -4.636000000
H    -5.370000000    -4.482000000    -4.417000000
C    -5.405000000    -2.421000000    -3.789000000
C    -4.999000000    -1.164000000    -4.216000000
H    -5.216000000    -0.292000000    -3.606000000
O    -5.243000000     2.521000000    -4.659000000
H    -5.132000000     3.463000000    -4.529000000
H    -5.095000000     2.142000000    -3.793000000
O    -8.887000000     0.236000000     0.422000000
H    -8.267000000     0.304000000    -0.305000000
H    -9.748000000     0.239000000     0.004000000
O    -6.992000000     4.795000000     2.284000000
H    -7.102000000     4.218000000     1.528000000
H    -6.049000000     4.948000000     2.334000000
O    -8.209000000     1.456000000     2.866000000
H    -8.527000000     2.355000000     2.788000000
H    -8.488000000     1.032000000     2.054000000
O    -2.450000000     2.458000000     1.670000000
H    -2.833000000     2.265000000     2.525000000
H    -2.460000000     1.620000000     1.208000000
O    -7.286000000     2.961000000     0.547000000
H    -7.043000000     2.232000000    -0.023000000
H    -8.169000000     3.201000000     0.266000000
O   -10.412000000     1.462000000    -4.770000000
H   -10.241000000     1.051000000    -5.618000000
H    -9.621000000     1.291000000    -4.258000000
O    -3.938000000     7.197000000    -1.816000000
H    -3.554000000     6.323000000    -1.747000000
H    -4.787000000     7.120000000    -1.379000000
O    -5.541000000     1.639000000    -7.335000000
H    -4.984000000     0.944000000    -7.687000000
H    -5.481000000     1.537000000    -6.386000000
O    -5.990000000     6.635000000     0.085000000
H    -5.690000000     5.729000000     0.012000000
H    -6.841000000     6.571000000     0.517000000
O    -8.113000000    -0.411000000    -2.107000000
H    -8.089000000     0.153000000    -2.880000000
H    -7.278000000    -0.251000000    -1.667000000
O    -2.913000000     7.194000000    -4.497000000
H    -3.177000000     8.055000000    -4.173000000
H    -3.462000000     6.577000000    -4.013000000
O    -9.486000000    -2.798000000    -3.057000000
H    -8.750000000    -2.289000000    -2.717000000
H   -10.259000000    -2.397000000    -2.660000000
O    -9.406000000     3.645000000    -0.932000000
H    -8.643000000     3.895000000    -1.453000000
H    -9.716000000     2.834000000    -1.335000000
O    -7.666000000     1.254000000    -4.616000000
H    -6.807000000     1.657000000    -4.488000000
H    -7.891000000     1.453000000    -5.525000000
O    -4.510000000     4.514000000    -0.774000000
H    -4.750000000     3.783000000    -1.343000000
H    -3.652000000     4.273000000    -0.424000000
O    -5.389000000     5.279000000    -4.644000000
H    -6.044000000     5.942000000    -4.428000000
H    -5.214000000     5.409000000    -5.576000000
O    -7.205000000     3.866000000    -2.340000000
H    -6.478000000     3.292000000    -2.097000000
H    -6.976000000     4.187000000    -3.212000000
O    -1.633000000     4.290000000    -0.220000000
H    -1.408000000     5.179000000     0.055000000
H    -1.608000000     3.776000000     0.587000000
