201
-1244.24837
C    -0.104000000     2.746000000     4.296000000
H     0.898000000     3.022000000     3.978000000
C    -0.451000000     1.391000000     4.482000000
C    -1.770000000     1.068000000     4.777000000
H    -2.143000000     0.048000000     4.822000000
C     0.622000000     0.374000000     4.241000000
O     1.951000000     0.862000000     4.551000000
H     0.659000000     0.130000000     3.169000000
O     0.361000000    -0.917000000     4.906000000
C     0.588000000    -2.028000000     4.059000000
C    -0.552000000    -2.559000000     3.552000000
H    -1.579000000    -2.270000000     3.762000000
C    -0.494000000    -3.643000000     2.721000000
O    -1.669000000    -4.055000000     2.108000000
C     0.753000000    -4.149000000     2.329000000
C     0.877000000    -5.362000000     1.327000000
H     1.757000000    -5.996000000     1.462000000
C     0.778000000    -4.907000000    -0.116000000
C     1.989000000    -4.680000000    -0.757000000
H     2.933000000    -4.884000000    -0.259000000
H     0.082000000    -6.081000000     1.535000000
C     1.936000000    -3.575000000     2.762000000
H     2.872000000    -3.960000000     2.365000000
C     1.811000000    -2.464000000     3.648000000
C     3.108000000    -1.832000000     4.184000000
H     3.876000000    -2.599000000     4.307000000
H     2.877000000    -1.410000000     5.164000000
C     3.441000000    -0.689000000     3.307000000
C     4.325000000    -0.891000000     2.280000000
H     4.674000000    -1.904000000     2.094000000
C     2.911000000     0.585000000     3.609000000
C     3.276000000     1.640000000     2.826000000
H     2.988000000     2.671000000     3.015000000
C     4.147000000     1.433000000     1.666000000
O     4.287000000     2.404000000     0.712000000
C     3.530000000     2.299000000    -0.532000000
C     2.824000000     3.662000000    -0.863000000
C     2.374000000     3.954000000    -2.206000000
H     2.454000000     3.164000000    -2.947000000
C     2.706000000     4.652000000     0.090000000
H     2.976000000     4.552000000     1.138000000
O     4.357000000     1.869000000    -1.661000000
H     2.780000000     1.502000000    -0.422000000
C     4.676000000     0.139000000     1.416000000
C     5.590000000    -0.161000000     0.155000000
H     6.319000000    -0.955000000     0.331000000
H     6.147000000     0.764000000    -0.005000000
C     4.851000000    -0.577000000    -1.110000000
C     4.626000000    -1.898000000    -1.384000000
H     5.006000000    -2.599000000    -0.644000000
C     4.318000000     0.472000000    -1.964000000
C     3.521000000     0.105000000    -3.078000000
H     2.987000000     0.863000000    -3.646000000
C     3.224000000    -1.200000000    -3.319000000
O     2.325000000    -1.510000000    -4.298000000
C     0.940000000    -1.703000000    -3.939000000
C    -0.134000000    -0.917000000    -4.690000000
C     0.181000000     0.196000000    -5.461000000
H     1.233000000     0.390000000    -5.653000000
C    -1.504000000    -1.149000000    -4.512000000
H    -1.845000000    -1.927000000    -3.834000000
O     0.585000000    -3.075000000    -3.867000000
H     0.741000000    -1.375000000    -2.908000000
C     3.816000000    -2.241000000    -2.503000000
C     3.378000000    -3.729000000    -2.689000000
H     4.170000000    -4.386000000    -2.323000000
H     3.280000000    -3.931000000    -3.758000000
C     2.030000000    -3.985000000    -2.017000000
C     0.777000000    -3.691000000    -2.621000000
C    -0.377000000    -4.098000000    -1.997000000
H    -1.319000000    -3.748000000    -2.414000000
C    -0.428000000    -4.564000000    -0.678000000
O    -1.648000000    -4.600000000    -0.099000000
C    -1.977000000    -3.545000000     0.836000000
H    -1.254000000    -2.775000000     0.528000000
C    -3.481000000    -3.214000000     0.724000000
C    -4.180000000    -2.628000000     1.781000000
H    -3.613000000    -2.268000000     2.635000000
C    -4.144000000    -3.516000000    -0.458000000
H    -3.574000000    -3.820000000    -1.332000000
C    -5.540000000    -3.286000000    -0.497000000
O    -6.135000000    -3.601000000    -1.713000000
C    -6.200000000    -2.690000000     0.541000000
H    -7.266000000    -2.562000000     0.376000000
C    -5.531000000    -2.404000000     1.731000000
O    -6.201000000    -1.979000000     2.951000000
C    -5.614000000    -1.438000000     4.075000000
C    -5.202000000    -0.114000000     4.019000000
H    -5.274000000     0.432000000     3.082000000
C    -5.542000000    -2.161000000     5.297000000
H    -6.047000000    -3.124000000     5.283000000
C    -5.005000000    -1.606000000     6.423000000
H    -5.037000000    -2.183000000     7.344000000
C    -4.523000000    -0.277000000     6.303000000
H    -4.281000000     0.257000000     7.218000000
C    -4.538000000     0.416000000     5.154000000
O    -4.075000000     1.740000000     5.085000000
C    -2.747000000     2.055000000     4.904000000
C    -2.381000000     3.356000000     4.755000000
H    -3.150000000     4.123000000     4.802000000
C    -1.079000000     3.723000000     4.500000000
O    -0.742000000     5.109000000     4.471000000
C     0.378000000     5.667000000     3.914000000
C     0.530000000     5.837000000     2.513000000
H    -0.127000000     5.354000000     1.795000000
C     1.331000000     6.117000000     4.831000000
H     1.145000000     6.077000000     5.901000000
C     2.422000000     6.806000000     4.302000000
H     3.270000000     6.984000000     4.959000000
C     2.578000000     6.978000000     2.894000000
H     3.435000000     7.558000000     2.563000000
C     1.655000000     6.554000000     2.038000000
O     1.827000000     6.761000000     0.669000000
C     2.014000000     5.797000000    -0.291000000
C     1.424000000     6.048000000    -1.522000000
H     0.840000000     6.963000000    -1.580000000
C     1.570000000     5.076000000    -2.500000000
O     0.955000000     5.290000000    -3.731000000
C     1.331000000     4.557000000    -4.844000000
C     0.417000000     3.617000000    -5.242000000
H    -0.541000000     3.590000000    -4.729000000
C     2.532000000     4.831000000    -5.542000000
H     3.210000000     5.662000000    -5.365000000
C     2.792000000     4.041000000    -6.722000000
H     3.760000000     4.166000000    -7.199000000
C     1.871000000     3.103000000    -7.094000000
H     2.136000000     2.464000000    -7.932000000
C     0.679000000     2.866000000    -6.364000000
O    -0.319000000     2.032000000    -6.801000000
C    -0.725000000     0.980000000    -6.073000000
C    -2.068000000     0.723000000    -5.811000000
H    -2.813000000     1.385000000    -6.245000000
C    -2.514000000    -0.378000000    -5.096000000
O    -3.816000000    -0.658000000    -4.820000000
C    -4.316000000    -1.970000000    -4.519000000
C    -4.423000000    -3.010000000    -5.465000000
H    -4.213000000    -2.782000000    -6.507000000
C    -5.145000000    -4.137000000    -5.130000000
H    -5.279000000    -4.849000000    -5.940000000
C    -5.551000000    -4.323000000    -3.818000000
H    -6.023000000    -5.236000000    -3.465000000
C    -5.538000000    -3.289000000    -2.917000000
C    -4.888000000    -2.092000000    -3.245000000
H    -4.948000000    -1.204000000    -2.621000000
O    -2.054000000     6.581000000    -6.168000000
H    -2.485000000     5.768000000    -5.906000000
H    -2.767000000     7.214000000    -6.253000000
O    -7.352000000    -0.085000000    -1.267000000
H    -6.668000000     0.111000000    -1.908000000
H    -7.934000000    -0.697000000    -1.717000000
O    -7.327000000     2.482000000     1.855000000
H    -6.579000000     2.800000000     1.350000000
H    -7.928000000     3.227000000     1.888000000
O    -0.343000000     2.585000000     0.819000000
H    -0.544000000     1.791000000     1.314000000
H    -0.164000000     2.275000000    -0.069000000
O    -8.778000000     3.927000000    -0.560000000
H    -9.646000000     3.557000000    -0.719000000
H    -8.172000000     3.281000000    -0.922000000
O    -5.153000000     3.212000000     0.261000000
H    -4.688000000     2.640000000    -0.349000000
H    -4.477000000     3.793000000     0.609000000
O    -1.862000000     7.482000000    -2.995000000
H    -2.266000000     6.638000000    -2.796000000
H    -1.655000000     7.435000000    -3.928000000
O    -8.311000000     5.015000000    -5.582000000
H    -8.393000000     5.849000000    -6.045000000
H    -7.451000000     5.058000000    -5.163000000
O    -5.643000000     5.134000000    -5.011000000
H    -5.424000000     4.713000000    -4.180000000
H    -4.960000000     4.844000000    -5.615000000
O    -1.231000000     7.184000000    -0.206000000
H    -0.548000000     7.797000000     0.066000000
H    -1.298000000     7.305000000    -1.153000000
O    -5.915000000     0.827000000    -3.828000000
H    -5.474000000     0.305000000    -4.499000000
H    -5.224000000     1.378000000    -3.461000000
O    -8.469000000     0.129000000     1.254000000
H    -7.949000000     0.870000000     1.564000000
H    -8.275000000     0.075000000     0.318000000
O    -8.448000000     2.038000000    -3.060000000
H    -7.620000000     1.869000000    -3.509000000
H    -8.543000000     1.307000000    -2.450000000
O    -7.087000000     5.813000000    -0.758000000
H    -6.332000000     5.423000000    -1.198000000
H    -7.698000000     5.086000000    -0.640000000
O    -3.122000000     4.230000000    -5.472000000
H    -3.069000000     3.779000000    -4.630000000
H    -3.056000000     3.532000000    -6.123000000
O    -2.465000000     5.114000000    -2.305000000
H    -2.473000000     4.998000000    -1.355000000
H    -2.647000000     4.242000000    -2.654000000
O    -5.148000000     7.677000000    -4.049000000
H    -5.270000000     6.785000000    -4.374000000
H    -4.330000000     7.969000000    -4.452000000
O    -5.420000000     4.417000000    -2.434000000
H    -4.676000000     5.019000000    -2.410000000
H    -5.129000000     3.657000000    -1.930000000
O    -2.767000000     4.899000000     0.239000000
H    -2.511000000     5.822000000     0.224000000
H    -2.132000000     4.484000000     0.823000000
