201
-1230.17720
C    -0.726000000     2.113000000     3.970000000
H     0.282000000     2.458000000     3.755000000
C    -1.028000000     0.809000000     4.286000000
C    -2.390000000     0.454000000     4.578000000
H    -2.735000000    -0.565000000     4.733000000
C     0.002000000    -0.300000000     4.159000000
O     1.276000000     0.057000000     4.610000000
H     0.174000000    -0.642000000     3.128000000
O    -0.353000000    -1.519000000     4.923000000
C    -0.330000000    -2.667000000     4.097000000
C    -1.485000000    -3.041000000     3.291000000
H    -2.400000000    -2.456000000     3.339000000
C    -1.378000000    -3.937000000     2.316000000
O    -2.430000000    -4.291000000     1.535000000
C    -0.191000000    -4.589000000     2.041000000
C    -0.091000000    -5.600000000     0.834000000
H     0.701000000    -6.339000000     0.966000000
C     0.119000000    -4.755000000    -0.429000000
C     1.422000000    -4.596000000    -0.938000000
H     2.270000000    -5.035000000    -0.418000000
H    -0.981000000    -6.218000000     0.700000000
C     0.987000000    -4.230000000     2.765000000
H     1.938000000    -4.647000000     2.443000000
C     0.886000000    -3.248000000     3.761000000
C     2.150000000    -2.715000000     4.414000000
H     2.877000000    -3.521000000     4.528000000
H     1.885000000    -2.341000000     5.405000000
C     2.723000000    -1.555000000     3.582000000
C     3.822000000    -1.841000000     2.737000000
H     4.205000000    -2.855000000     2.663000000
C     2.269000000    -0.281000000     3.703000000
C     2.926000000     0.749000000     2.973000000
H     2.472000000     1.736000000     2.959000000
C     4.023000000     0.496000000     2.184000000
O     4.532000000     1.538000000     1.533000000
C     3.978000000     1.861000000     0.179000000
C     3.812000000     3.371000000    -0.073000000
C     3.848000000     3.799000000    -1.404000000
H     3.989000000     3.116000000    -2.238000000
C     3.448000000     4.204000000     0.996000000
H     3.461000000     3.903000000     2.040000000
O     4.860000000     1.271000000    -0.819000000
H     2.966000000     1.442000000     0.075000000
C     4.497000000    -0.803000000     2.023000000
C     5.521000000    -1.122000000     0.943000000
H     5.981000000    -2.106000000     1.058000000
H     6.320000000    -0.382000000     1.015000000
C     4.851000000    -1.106000000    -0.504000000
C     4.467000000    -2.354000000    -1.030000000
H     4.545000000    -3.240000000    -0.406000000
C     4.625000000     0.042000000    -1.241000000
C     3.924000000    -0.056000000    -2.467000000
H     3.699000000     0.861000000    -3.005000000
C     3.538000000    -1.315000000    -2.953000000
O     2.753000000    -1.336000000    -4.065000000
C     1.337000000    -1.204000000    -3.887000000
C     0.671000000    -0.260000000    -4.832000000
C     1.357000000     0.747000000    -5.484000000
H     2.438000000     0.857000000    -5.489000000
C    -0.771000000    -0.273000000    -4.842000000
H    -1.380000000    -1.034000000    -4.361000000
O     0.698000000    -2.448000000    -3.832000000
H     1.218000000    -0.716000000    -2.908000000
C     3.700000000    -2.437000000    -2.181000000
C     3.079000000    -3.763000000    -2.626000000
H     3.765000000    -4.555000000    -2.319000000
H     3.064000000    -3.805000000    -3.717000000
C     1.712000000    -3.906000000    -2.104000000
C     0.623000000    -3.250000000    -2.714000000
C    -0.656000000    -3.462000000    -2.301000000
H    -1.479000000    -2.989000000    -2.830000000
C    -0.950000000    -4.233000000    -1.178000000
O    -2.219000000    -4.263000000    -0.758000000
C    -2.609000000    -3.484000000     0.375000000
H    -1.855000000    -2.685000000     0.441000000
C    -3.969000000    -2.855000000     0.180000000
C    -4.864000000    -2.630000000     1.270000000
H    -4.561000000    -3.005000000     2.244000000
C    -4.307000000    -2.361000000    -1.042000000
H    -3.530000000    -2.445000000    -1.798000000
C    -5.559000000    -1.812000000    -1.296000000
O    -5.988000000    -1.583000000    -2.606000000
C    -6.484000000    -1.781000000    -0.275000000
H    -7.435000000    -1.280000000    -0.435000000
C    -6.108000000    -2.083000000     1.049000000
O    -6.986000000    -1.842000000     2.086000000
C    -6.478000000    -1.430000000     3.316000000
C    -5.782000000    -0.294000000     3.498000000
H    -5.641000000     0.389000000     2.664000000
C    -6.686000000    -2.275000000     4.388000000
H    -7.281000000    -3.184000000     4.388000000
C    -6.070000000    -1.983000000     5.622000000
H    -6.250000000    -2.704000000     6.415000000
C    -5.364000000    -0.801000000     5.824000000
H    -4.938000000    -0.622000000     6.808000000
C    -5.278000000     0.059000000     4.757000000
O    -4.685000000     1.214000000     4.937000000
C    -3.344000000     1.429000000     4.553000000
C    -2.988000000     2.782000000     4.255000000
H    -3.771000000     3.532000000     4.180000000
C    -1.670000000     3.108000000     4.022000000
O    -1.427000000     4.428000000     3.514000000
C    -0.145000000     4.976000000     3.746000000
C     0.661000000     5.353000000     2.658000000
H     0.270000000     5.374000000     1.644000000
C     0.280000000     5.232000000     5.024000000
H    -0.352000000     4.979000000     5.871000000
C     1.570000000     5.837000000     5.272000000
H     1.825000000     6.014000000     6.314000000
C     2.367000000     6.225000000     4.171000000
H     3.333000000     6.725000000     4.162000000
C     1.920000000     5.913000000     2.896000000
O     2.523000000     6.241000000     1.691000000
C     3.022000000     5.488000000     0.694000000
C     2.825000000     5.828000000    -0.603000000
H     2.330000000     6.769000000    -0.828000000
C     3.276000000     5.039000000    -1.638000000
O     2.985000000     5.522000000    -2.910000000
C     3.203000000     4.836000000    -4.103000000
C     2.072000000     4.208000000    -4.751000000
H     1.102000000     4.236000000    -4.261000000
C     4.431000000     4.812000000    -4.668000000
H     5.283000000     5.321000000    -4.225000000
C     4.649000000     4.209000000    -5.887000000
H     5.648000000     4.211000000    -6.316000000
C     3.581000000     3.517000000    -6.553000000
H     3.703000000     3.034000000    -7.519000000
C     2.336000000     3.483000000    -5.931000000
O     1.252000000     2.875000000    -6.561000000
C     0.661000000     1.781000000    -6.066000000
C    -0.776000000     1.736000000    -6.083000000
H    -1.341000000     2.557000000    -6.517000000
C    -1.512000000     0.718000000    -5.466000000
O    -2.888000000     0.880000000    -5.371000000
C    -3.632000000    -0.217000000    -5.138000000
C    -4.015000000    -0.971000000    -6.274000000
H    -3.670000000    -0.780000000    -7.286000000
C    -5.051000000    -1.901000000    -6.117000000
H    -5.312000000    -2.560000000    -6.941000000
C    -5.598000000    -2.145000000    -4.849000000
H    -6.356000000    -2.917000000    -4.745000000
C    -5.193000000    -1.524000000    -3.734000000
C    -4.221000000    -0.511000000    -3.882000000
H    -3.899000000     0.169000000    -3.098000000
O    -7.812000000     6.303000000    -2.626000000
H    -7.333000000     6.113000000    -3.433000000
H    -7.145000000     6.278000000    -1.940000000
O    -7.667000000     2.529000000     0.831000000
H    -8.301000000     1.814000000     0.871000000
H    -6.901000000     2.146000000     0.404000000
O    -0.951000000     3.155000000     1.071000000
H    -1.132000000     2.216000000     1.127000000
H    -1.500000000     3.545000000     1.751000000
O    -9.258000000     1.131000000    -4.011000000
H    -9.246000000     1.771000000    -4.722000000
H    -8.726000000     1.529000000    -3.322000000
O    -6.098000000     6.458000000    -4.556000000
H    -6.359000000     7.253000000    -5.022000000
H    -5.153000000     6.552000000    -4.434000000
O    -5.637000000     5.233000000     3.817000000
H    -5.154000000     4.984000000     3.029000000
H    -5.320000000     6.111000000     4.025000000
O    -0.990000000     6.825000000    -3.094000000
H    -1.077000000     5.945000000    -2.728000000
H    -0.393000000     7.275000000    -2.495000000
O    -3.083000000     7.705000000    -1.020000000
H    -3.107000000     7.660000000    -0.064000000
H    -2.151000000     7.685000000    -1.238000000
O    -4.649000000     3.340000000    -7.422000000
H    -5.564000000     3.537000000    -7.623000000
H    -4.527000000     3.655000000    -6.527000000
O    -5.102000000     5.657000000    -1.115000000
H    -4.706000000     4.887000000    -1.525000000
H    -4.358000000     6.158000000    -0.781000000
O    -6.880000000     1.637000000    -2.531000000
H    -6.315000000     1.862000000    -1.793000000
H    -6.307000000     1.169000000    -3.138000000
O    -7.442000000     5.349000000     0.288000000
H    -6.696000000     5.670000000    -0.219000000
H    -7.343000000     4.397000000     0.283000000
O    -6.001000000     7.612000000     1.662000000
H    -6.129000000     6.682000000     1.474000000
H    -5.721000000     7.634000000     2.577000000
O   -10.247000000     3.867000000     0.793000000
H    -9.439000000     3.374000000     0.936000000
H   -10.433000000     4.271000000     1.640000000
O    -2.742000000     6.524000000     1.490000000
H    -2.953000000     6.259000000     2.386000000
H    -2.086000000     7.214000000     1.593000000
O    -8.025000000     2.671000000     3.609000000
H    -7.427000000     3.343000000     3.937000000
H    -7.975000000     2.751000000     2.657000000
O    -1.224000000     4.431000000    -1.210000000
H    -0.872000000     4.079000000    -0.393000000
H    -2.165000000     4.261000000    -1.158000000
O    -4.539000000     4.097000000    -4.600000000
H    -5.431000000     4.427000000    -4.488000000
H    -4.231000000     3.931000000    -3.710000000
O    -4.837000000     4.089000000     1.514000000
H    -5.026000000     3.432000000     0.844000000
H    -4.377000000     4.784000000     1.044000000
