201
-1248.60831
C    -1.797000000     2.778000000     4.604000000
H    -0.838000000     3.139000000     4.967000000
C    -1.980000000     1.412000000     4.265000000
C    -3.190000000     0.972000000     3.714000000
H    -3.374000000    -0.083000000     3.529000000
C    -0.817000000     0.465000000     4.321000000
O     0.451000000     0.912000000     4.975000000
H    -0.466000000     0.328000000     3.287000000
O    -1.143000000    -0.792000000     4.875000000
C    -0.593000000    -1.899000000     4.226000000
C    -1.449000000    -2.555000000     3.421000000
H    -2.454000000    -2.148000000     3.335000000
C    -1.010000000    -3.601000000     2.596000000
O    -1.909000000    -3.994000000     1.607000000
C     0.321000000    -4.015000000     2.578000000
C     0.897000000    -5.102000000     1.652000000
H     1.762000000    -5.404000000     2.246000000
C     1.238000000    -4.649000000     0.233000000
C     2.570000000    -4.419000000    -0.048000000
H     3.342000000    -4.555000000     0.705000000
H     0.251000000    -5.981000000     1.600000000
C     1.231000000    -3.284000000     3.326000000
H     2.284000000    -3.549000000     3.277000000
C     0.827000000    -2.273000000     4.178000000
C     1.878000000    -1.630000000     5.051000000
H     2.694000000    -2.332000000     5.234000000
H     1.484000000    -1.298000000     6.014000000
C     2.420000000    -0.371000000     4.395000000
C     3.403000000    -0.594000000     3.481000000
H     3.801000000    -1.589000000     3.298000000
C     1.655000000     0.826000000     4.332000000
C     2.038000000     1.838000000     3.489000000
H     1.339000000     2.668000000     3.421000000
C     3.245000000     1.743000000     2.724000000
O     3.664000000     2.688000000     1.913000000
C     3.363000000     2.595000000     0.480000000
C     2.673000000     3.884000000     0.046000000
C     2.509000000     4.086000000    -1.333000000
H     2.792000000     3.269000000    -1.992000000
C     2.153000000     4.802000000     0.945000000
H     2.268000000     4.734000000     2.024000000
O     4.498000000     2.202000000    -0.289000000
H     2.560000000     1.857000000     0.338000000
C     3.861000000     0.459000000     2.681000000
C     5.141000000     0.242000000     1.839000000
H     5.838000000    -0.480000000     2.271000000
H     5.771000000     1.133000000     1.858000000
C     4.824000000    -0.169000000     0.413000000
C     4.785000000    -1.550000000     0.047000000
H     4.918000000    -2.302000000     0.820000000
C     4.547000000     0.842000000    -0.538000000
C     4.262000000     0.444000000    -1.824000000
H     4.018000000     1.222000000    -2.543000000
C     4.150000000    -0.927000000    -2.131000000
O     3.523000000    -1.246000000    -3.436000000
C     2.085000000    -1.622000000    -3.436000000
C     1.385000000    -0.988000000    -4.577000000
C     1.689000000     0.270000000    -5.014000000
H     2.525000000     0.754000000    -4.515000000
C     0.305000000    -1.601000000    -5.151000000
H     0.114000000    -2.644000000    -4.910000000
O     2.117000000    -3.059000000    -3.522000000
H     1.582000000    -1.237000000    -2.537000000
C     4.437000000    -1.914000000    -1.218000000
C     4.280000000    -3.383000000    -1.528000000
H     4.908000000    -3.950000000    -0.839000000
H     4.589000000    -3.664000000    -2.537000000
C     2.893000000    -3.931000000    -1.314000000
C     1.952000000    -3.715000000    -2.328000000
C     0.597000000    -3.902000000    -1.959000000
H    -0.200000000    -3.805000000    -2.693000000
C     0.265000000    -4.373000000    -0.690000000
O    -1.091000000    -4.687000000    -0.518000000
C    -1.804000000    -3.699000000     0.171000000
H    -1.305000000    -2.719000000     0.167000000
C    -3.207000000    -3.461000000    -0.380000000
C    -4.267000000    -3.185000000     0.492000000
H    -4.087000000    -3.124000000     1.562000000
C    -3.406000000    -3.378000000    -1.756000000
H    -2.571000000    -3.425000000    -2.450000000
C    -4.664000000    -2.871000000    -2.192000000
O    -4.847000000    -2.664000000    -3.531000000
C    -5.738000000    -2.759000000    -1.316000000
H    -6.728000000    -2.657000000    -1.751000000
C    -5.585000000    -2.988000000     0.057000000
O    -6.664000000    -2.734000000     0.878000000
C    -6.559000000    -2.015000000     2.066000000
C    -6.188000000    -0.646000000     1.991000000
H    -5.774000000    -0.180000000     1.100000000
C    -6.984000000    -2.414000000     3.316000000
H    -7.365000000    -3.422000000     3.456000000
C    -6.919000000    -1.619000000     4.456000000
H    -7.159000000    -1.963000000     5.459000000
C    -6.371000000    -0.323000000     4.344000000
H    -6.159000000     0.376000000     5.149000000
C    -5.941000000     0.120000000     3.135000000
O    -5.404000000     1.442000000     3.013000000
C    -4.169000000     1.905000000     3.492000000
C    -3.983000000     3.233000000     3.717000000
H    -4.772000000     3.971000000     3.591000000
C    -2.789000000     3.698000000     4.175000000
O    -2.507000000     5.057000000     4.131000000
C    -1.244000000     5.541000000     3.857000000
C    -0.853000000     6.028000000     2.603000000
H    -1.528000000     5.947000000     1.755000000
C    -0.393000000     5.690000000     4.933000000
H    -0.818000000     5.353000000     5.875000000
C     0.778000000     6.389000000     4.825000000
H     1.484000000     6.217000000     5.633000000
C     1.213000000     6.798000000     3.540000000
H     2.220000000     7.158000000     3.345000000
C     0.375000000     6.599000000     2.461000000
O     0.857000000     6.871000000     1.251000000
C     1.436000000     5.917000000     0.486000000
C     1.268000000     6.036000000    -0.894000000
H     0.646000000     6.805000000    -1.345000000
C     1.857000000     5.172000000    -1.791000000
O     1.600000000     5.343000000    -3.155000000
C     2.315000000     4.768000000    -4.117000000
C     1.642000000     3.771000000    -4.764000000
H     0.574000000     3.643000000    -4.606000000
C     3.686000000     4.911000000    -4.424000000
H     4.186000000     5.756000000    -3.956000000
C     4.291000000     4.148000000    -5.437000000
H     5.306000000     4.361000000    -5.763000000
C     3.516000000     3.123000000    -6.144000000
H     4.069000000     2.439000000    -6.783000000
C     2.182000000     3.049000000    -5.821000000
O     1.394000000     2.170000000    -6.502000000
C     1.008000000     0.926000000    -6.105000000
C    -0.160000000     0.315000000    -6.579000000
H    -0.705000000     0.697000000    -7.438000000
C    -0.484000000    -0.985000000    -6.119000000
O    -1.467000000    -1.710000000    -6.720000000
C    -2.205000000    -2.647000000    -6.096000000
C    -2.171000000    -4.021000000    -6.508000000
H    -1.476000000    -4.231000000    -7.317000000
C    -3.045000000    -4.934000000    -5.923000000
H    -2.953000000    -5.993000000    -6.150000000
C    -4.047000000    -4.507000000    -5.000000000
H    -4.732000000    -5.164000000    -4.471000000
C    -4.039000000    -3.203000000    -4.542000000
C    -3.123000000    -2.264000000    -5.067000000
H    -3.200000000    -1.204000000    -4.839000000
O    -3.821000000     0.243000000    -9.044000000
H    -3.731000000    -0.621000000    -9.448000000
H    -4.069000000     0.058000000    -8.138000000
O    -4.007000000     3.171000000    -8.600000000
H    -3.285000000     3.259000000    -7.976000000
H    -4.156000000     2.228000000    -8.662000000
O    -4.191000000     6.976000000    -3.643000000
H    -3.887000000     6.071000000    -3.716000000
H    -5.056000000     6.906000000    -3.238000000
O    -4.337000000     6.305000000    -0.463000000
H    -4.399000000     7.260000000    -0.444000000
H    -3.400000000     6.128000000    -0.549000000
O    -1.873000000     5.216000000    -0.964000000
H    -1.954000000     4.276000000    -0.800000000
H    -0.937000000     5.394000000    -0.879000000
O    -2.489000000     2.788000000     0.061000000
H    -3.434000000     2.715000000    -0.078000000
H    -2.181000000     1.882000000     0.087000000
O    -8.107000000    -2.476000000    -4.021000000
H    -7.639000000    -3.113000000    -4.561000000
H    -7.416000000    -1.961000000    -3.604000000
O    -2.795000000     4.590000000    -3.611000000
H    -2.322000000     4.779000000    -2.800000000
H    -2.726000000     3.641000000    -3.712000000
O    -7.407000000     0.147000000    -6.341000000
H    -7.298000000     0.007000000    -5.400000000
H    -8.354000000     0.142000000    -6.476000000
O    -7.513000000     1.153000000    -1.393000000
H    -7.755000000     1.983000000    -1.804000000
H    -7.881000000     1.206000000    -0.511000000
O    -1.979000000     3.260000000    -6.752000000
H    -2.128000000     2.659000000    -6.023000000
H    -2.158000000     4.127000000    -6.388000000
O    -2.373000000     6.045000000    -6.256000000
H    -1.578000000     6.454000000    -6.598000000
H    -2.375000000     6.267000000    -5.325000000
O    -5.496000000     3.999000000    -4.729000000
H    -5.831000000     3.200000000    -5.136000000
H    -4.551000000     3.857000000    -4.665000000
O    -6.566000000    -0.009000000    -3.758000000
H    -7.021000000     0.388000000    -3.014000000
H    -5.637000000     0.120000000    -3.567000000
O    -7.611000000     3.452000000    -2.756000000
H    -6.698000000     3.737000000    -2.793000000
H    -8.096000000     4.235000000    -2.499000000
O    -6.258000000     4.096000000     0.291000000
H    -5.724000000     4.869000000     0.474000000
H    -5.659000000     3.487000000    -0.140000000
O    -4.615000000     0.883000000    -6.490000000
H    -4.063000000     1.162000000    -5.759000000
H    -5.400000000     0.526000000    -6.075000000
O    -4.723000000     1.967000000    -1.250000000
H    -4.276000000     1.591000000    -2.008000000
H    -5.583000000     1.546000000    -1.245000000
O    -6.917000000     2.853000000    -7.634000000
H    -5.974000000     2.993000000    -7.550000000
H    -7.016000000     1.902000000    -7.676000000
