201
-1281.03281
C     0.774000000     3.238000000     4.299000000
H     1.520000000     3.591000000     3.592000000
C     0.563000000     1.894000000     4.523000000
C    -0.462000000     1.479000000     5.364000000
H    -0.545000000     0.405000000     5.511000000
C     1.458000000     0.860000000     3.884000000
O     2.795000000     1.473000000     3.806000000
H     1.098000000     0.793000000     2.847000000
O     1.438000000    -0.301000000     4.603000000
C     1.555000000    -1.525000000     3.932000000
C     0.408000000    -2.288000000     3.839000000
H    -0.505000000    -1.880000000     4.265000000
C     0.393000000    -3.505000000     3.144000000
O    -0.783000000    -4.119000000     2.891000000
C     1.556000000    -3.931000000     2.556000000
C     1.568000000    -5.184000000     1.649000000
H     2.538000000    -5.681000000     1.578000000
C     1.162000000    -4.853000000     0.187000000
C     2.159000000    -4.529000000    -0.780000000
H     3.224000000    -4.485000000    -0.568000000
H     0.919000000    -5.947000000     2.084000000
C     2.717000000    -3.201000000     2.664000000
H     3.623000000    -3.598000000     2.214000000
C     2.679000000    -1.944000000     3.342000000
C     3.928000000    -1.106000000     3.536000000
H     4.806000000    -1.740000000     3.397000000
H     3.991000000    -0.794000000     4.581000000
C     4.042000000    -0.073000000     2.477000000
C     4.708000000    -0.357000000     1.253000000
H     5.068000000    -1.352000000     1.005000000
C     3.546000000     1.189000000     2.676000000
C     3.737000000     2.226000000     1.712000000
H     3.343000000     3.231000000     1.841000000
C     4.338000000     1.895000000     0.492000000
O     4.179000000     2.835000000    -0.556000000
C     3.273000000     2.533000000    -1.677000000
C     2.471000000     3.747000000    -2.042000000
C     1.863000000     3.808000000    -3.302000000
H     2.261000000     3.132000000    -4.054000000
C     2.111000000     4.668000000    -1.036000000
H     2.464000000     4.475000000    -0.026000000
O     3.976000000     1.989000000    -2.758000000
H     2.558000000     1.784000000    -1.306000000
C     4.760000000     0.594000000     0.192000000
C     5.441000000     0.269000000    -1.144000000
H     6.188000000    -0.498000000    -0.931000000
H     6.069000000     1.119000000    -1.415000000
C     4.425000000    -0.186000000    -2.105000000
C     4.199000000    -1.569000000    -2.200000000
H     4.802000000    -2.259000000    -1.615000000
C     3.687000000     0.659000000    -2.889000000
C     2.676000000     0.185000000    -3.719000000
H     2.022000000     0.908000000    -4.200000000
C     2.352000000    -1.159000000    -3.673000000
O     1.234000000    -1.628000000    -4.379000000
C     0.099000000    -1.891000000    -3.561000000
C    -1.096000000    -1.312000000    -4.327000000
C    -1.048000000    -0.354000000    -5.339000000
H    -0.072000000    -0.090000000    -5.739000000
C    -2.343000000    -1.610000000    -3.761000000
H    -2.408000000    -2.215000000    -2.860000000
O    -0.041000000    -3.293000000    -3.425000000
H     0.170000000    -1.398000000    -2.580000000
C     3.133000000    -2.046000000    -2.928000000
C     2.825000000    -3.545000000    -3.001000000
H     3.693000000    -4.189000000    -2.845000000
H     2.519000000    -3.832000000    -4.009000000
C     1.776000000    -4.000000000    -2.042000000
C     0.424000000    -3.880000000    -2.306000000
C    -0.515000000    -4.272000000    -1.412000000
H    -1.569000000    -4.124000000    -1.633000000
C    -0.183000000    -4.882000000    -0.209000000
O    -1.239000000    -5.016000000     0.680000000
C    -1.461000000    -3.902000000     1.633000000
H    -1.130000000    -2.976000000     1.140000000
C    -2.952000000    -3.545000000     1.846000000
C    -3.284000000    -2.734000000     2.951000000
H    -2.625000000    -2.569000000     3.800000000
C    -3.879000000    -3.929000000     0.886000000
H    -3.532000000    -4.640000000     0.140000000
C    -5.188000000    -3.430000000     0.972000000
O    -6.201000000    -3.803000000     0.021000000
C    -5.453000000    -2.478000000     1.969000000
H    -6.430000000    -2.007000000     2.043000000
C    -4.522000000    -2.168000000     2.954000000
O    -4.795000000    -1.131000000     3.799000000
C    -4.197000000    -0.799000000     4.990000000
C    -3.533000000     0.406000000     5.176000000
H    -3.324000000     1.103000000     4.368000000
C    -4.436000000    -1.597000000     6.079000000
H    -5.009000000    -2.514000000     5.967000000
C    -4.004000000    -1.198000000     7.362000000
H    -4.186000000    -1.828000000     8.229000000
C    -3.309000000    -0.024000000     7.476000000
H    -2.991000000     0.286000000     8.468000000
C    -3.082000000     0.824000000     6.425000000
O    -2.491000000     2.080000000     6.592000000
C    -1.303000000     2.448000000     5.938000000
C    -1.198000000     3.776000000     5.611000000
H    -1.950000000     4.512000000     5.882000000
C    -0.165000000     4.197000000     4.781000000
O    -0.198000000     5.523000000     4.368000000
C     0.579000000     6.005000000     3.330000000
C     0.163000000     5.980000000     1.997000000
H    -0.825000000     5.587000000     1.770000000
C     1.887000000     6.433000000     3.642000000
H     2.220000000     6.503000000     4.675000000
C     2.772000000     6.857000000     2.671000000
H     3.808000000     7.096000000     2.895000000
C     2.349000000     6.891000000     1.352000000
H     3.050000000     7.224000000     0.591000000
C     1.012000000     6.518000000     1.026000000
O     0.670000000     6.528000000    -0.306000000
C     1.200000000     5.666000000    -1.308000000
C     0.638000000     5.712000000    -2.585000000
H    -0.100000000     6.491000000    -2.757000000
C     1.004000000     4.823000000    -3.595000000
O     0.255000000     4.854000000    -4.789000000
C     0.274000000     3.854000000    -5.793000000
C    -0.820000000     2.978000000    -5.862000000
H    -1.664000000     3.094000000    -5.186000000
C     1.345000000     3.718000000    -6.741000000
H     2.217000000     4.337000000    -6.544000000
C     1.257000000     2.746000000    -7.732000000
H     2.065000000     2.524000000    -8.425000000
C     0.149000000     1.784000000    -7.708000000
H     0.091000000     0.917000000    -8.360000000
C    -0.854000000     1.937000000    -6.766000000
O    -2.066000000     1.209000000    -6.791000000
C    -2.183000000     0.223000000    -5.867000000
C    -3.416000000     0.016000000    -5.257000000
H    -4.343000000     0.528000000    -5.502000000
C    -3.485000000    -0.931000000    -4.210000000
O    -4.743000000    -1.192000000    -3.580000000
C    -5.204000000    -2.392000000    -3.169000000
C    -5.599000000    -3.463000000    -4.021000000
H    -5.614000000    -3.300000000    -5.096000000
C    -6.031000000    -4.669000000    -3.548000000
H    -6.315000000    -5.551000000    -4.116000000
C    -6.245000000    -4.828000000    -2.196000000
H    -6.610000000    -5.796000000    -1.865000000
C    -5.931000000    -3.763000000    -1.340000000
C    -5.419000000    -2.568000000    -1.839000000
H    -5.222000000    -1.746000000    -1.155000000
O    -4.466000000     5.024000000    -1.013000000
H    -4.588000000     4.106000000    -1.258000000
H    -3.676000000     5.293000000    -1.483000000
O    -8.124000000     3.484000000    -0.943000000
H    -7.975000000     3.207000000    -0.038000000
H    -8.342000000     2.676000000    -1.408000000
O    -5.915000000     2.185000000     2.262000000
H    -5.485000000     1.953000000     1.438000000
H    -5.860000000     3.140000000     2.300000000
O    -7.015000000     4.296000000    -3.689000000
H    -7.478000000     3.685000000    -3.116000000
H    -7.398000000     4.151000000    -4.554000000
O    -4.760000000     3.422000000    -7.163000000
H    -4.252000000     4.108000000    -7.597000000
H    -4.391000000     3.371000000    -6.282000000
O    -8.747000000     1.646000000    -2.734000000
H    -9.356000000     1.421000000    -3.437000000
H    -7.881000000     1.472000000    -3.102000000
O    -9.876000000    -0.264000000     0.737000000
H    -9.181000000     0.395000000     0.740000000
H    -9.412000000    -1.101000000     0.715000000
O    -2.017000000     6.636000000    -0.666000000
H    -2.368000000     6.460000000    -1.539000000
H    -1.096000000     6.383000000    -0.722000000
O    -7.336000000     0.334000000    -6.280000000
H    -7.100000000     1.176000000    -6.670000000
H    -7.350000000     0.501000000    -5.338000000
O    -7.330000000     0.457000000    -0.029000000
H    -7.309000000     0.171000000    -0.942000000
H    -6.468000000     0.844000000     0.120000000
O    -6.861000000     0.740000000     4.441000000
H    -6.318000000    -0.046000000     4.505000000
H    -6.362000000     1.330000000     3.876000000
O    -2.737000000     5.532000000    -3.003000000
H    -2.382000000     6.154000000    -3.638000000
H    -3.064000000     4.807000000    -3.535000000
O    -3.850000000     5.552000000     3.603000000
H    -3.162000000     6.082000000     3.202000000
H    -4.397000000     5.274000000     2.869000000
O    -4.176000000     3.619000000    -4.435000000
H    -5.031000000     4.032000000    -4.314000000
H    -4.077000000     3.047000000    -3.673000000
O    -6.304000000     1.118000000    -3.622000000
H    -5.839000000     0.292000000    -3.487000000
H    -5.817000000     1.754000000    -3.098000000
O    -7.158000000     6.723000000    -2.325000000
H    -7.214000000     5.801000000    -2.575000000
H    -6.377000000     7.046000000    -2.774000000
O    -6.109000000     4.874000000     1.599000000
H    -6.889000000     5.426000000     1.536000000
H    -5.705000000     4.930000000     0.733000000
O    -5.509000000     7.437000000    -0.127000000
H    -4.849000000     6.749000000    -0.213000000
H    -6.184000000     7.202000000    -0.764000000
O    -8.703000000     2.820000000     2.046000000
H    -7.972000000     2.234000000     2.242000000
H    -8.672000000     3.481000000     2.738000000
