201
-1233.26551
C     0.415000000     2.958000000     4.391000000
H     1.471000000     3.176000000     4.250000000
C     0.010000000     1.661000000     4.221000000
C    -1.322000000     1.238000000     4.452000000
H    -1.687000000     0.224000000     4.306000000
C     1.106000000     0.625000000     3.849000000
O     2.515000000     1.061000000     3.924000000
H     0.936000000     0.310000000     2.808000000
O     0.982000000    -0.502000000     4.618000000
C     0.997000000    -1.767000000     4.057000000
C    -0.167000000    -2.530000000     3.917000000
H    -1.013000000    -2.155000000     4.487000000
C    -0.188000000    -3.602000000     3.052000000
O    -1.428000000    -4.055000000     2.681000000
C     1.007000000    -4.071000000     2.435000000
C     1.083000000    -5.267000000     1.532000000
H     2.056000000    -5.759000000     1.588000000
C     0.872000000    -4.819000000     0.125000000
C     1.949000000    -4.575000000    -0.682000000
H     2.946000000    -4.850000000    -0.349000000
H     0.341000000    -5.980000000     1.897000000
C     2.195000000    -3.364000000     2.692000000
H     3.097000000    -3.714000000     2.197000000
C     2.201000000    -2.242000000     3.466000000
C     3.522000000    -1.608000000     3.709000000
H     4.420000000    -2.229000000     3.706000000
H     3.593000000    -1.188000000     4.715000000
C     3.819000000    -0.462000000     2.730000000
C     4.556000000    -0.774000000     1.585000000
H     4.951000000    -1.771000000     1.406000000
C     3.365000000     0.822000000     2.947000000
C     3.627000000     1.779000000     1.991000000
H     3.243000000     2.779000000     2.179000000
C     4.291000000     1.474000000     0.822000000
O     4.477000000     2.563000000    -0.040000000
C     3.564000000     2.455000000    -1.146000000
C     2.953000000     3.804000000    -1.481000000
C     2.503000000     4.099000000    -2.819000000
H     2.817000000     3.495000000    -3.666000000
C     2.515000000     4.677000000    -0.407000000
H     2.649000000     4.357000000     0.623000000
O     4.282000000     1.822000000    -2.269000000
H     2.726000000     1.774000000    -0.934000000
C     4.863000000     0.233000000     0.628000000
C     5.713000000    -0.054000000    -0.571000000
H     6.552000000    -0.735000000    -0.414000000
H     6.230000000     0.888000000    -0.765000000
C     4.781000000    -0.523000000    -1.662000000
C     4.343000000    -1.795000000    -1.791000000
H     4.727000000    -2.556000000    -1.117000000
C     4.139000000     0.459000000    -2.391000000
C     3.171000000     0.058000000    -3.358000000
H     2.613000000     0.862000000    -3.832000000
C     2.788000000    -1.227000000    -3.475000000
O     1.728000000    -1.476000000    -4.257000000
C     0.449000000    -1.852000000    -3.734000000
C    -0.729000000    -1.136000000    -4.397000000
C    -0.480000000     0.159000000    -4.905000000
H     0.538000000     0.539000000    -4.870000000
C    -2.047000000    -1.577000000    -4.292000000
H    -2.205000000    -2.493000000    -3.729000000
O     0.190000000    -3.329000000    -3.701000000
H     0.443000000    -1.502000000    -2.691000000
C     3.396000000    -2.191000000    -2.713000000
C     3.080000000    -3.728000000    -2.810000000
H     3.827000000    -4.291000000    -2.247000000
H     3.070000000    -4.106000000    -3.834000000
C     1.810000000    -4.139000000    -2.046000000
C     0.484000000    -3.892000000    -2.492000000
C    -0.589000000    -3.945000000    -1.596000000
H    -1.626000000    -3.690000000    -1.799000000
C    -0.416000000    -4.513000000    -0.358000000
O    -1.629000000    -4.768000000     0.381000000
C    -1.902000000    -3.752000000     1.390000000
H    -1.507000000    -2.777000000     1.069000000
C    -3.396000000    -3.468000000     1.340000000
C    -4.023000000    -3.043000000     2.577000000
H    -3.431000000    -2.746000000     3.439000000
C    -4.162000000    -3.609000000     0.177000000
H    -3.664000000    -3.916000000    -0.739000000
C    -5.498000000    -3.327000000     0.197000000
O    -6.277000000    -3.496000000    -0.927000000
C    -6.032000000    -2.735000000     1.307000000
H    -7.091000000    -2.500000000     1.387000000
C    -5.280000000    -2.452000000     2.453000000
O    -5.865000000    -1.834000000     3.537000000
C    -5.275000000    -1.258000000     4.522000000
C    -4.570000000    -0.055000000     4.390000000
H    -4.682000000     0.347000000     3.387000000
C    -5.333000000    -1.873000000     5.793000000
H    -5.901000000    -2.779000000     5.990000000
C    -4.639000000    -1.307000000     6.880000000
H    -4.830000000    -1.781000000     7.839000000
C    -4.004000000    -0.054000000     6.711000000
H    -3.367000000     0.356000000     7.490000000
C    -3.948000000     0.592000000     5.480000000
O    -3.465000000     1.922000000     5.257000000
C    -2.239000000     2.264000000     4.757000000
C    -1.823000000     3.586000000     4.785000000
H    -2.527000000     4.362000000     5.073000000
C    -0.517000000     3.976000000     4.635000000
O    -0.145000000     5.307000000     4.713000000
C     0.863000000     5.814000000     3.952000000
C     0.587000000     6.055000000     2.572000000
H    -0.389000000     5.839000000     2.145000000
C     2.101000000     6.164000000     4.500000000
H     2.324000000     5.985000000     5.548000000
C     3.098000000     6.573000000     3.653000000
H     4.096000000     6.772000000     4.033000000
C     2.909000000     6.668000000     2.267000000
H     3.717000000     7.025000000     1.633000000
C     1.665000000     6.403000000     1.744000000
O     1.493000000     6.690000000     0.401000000
C     1.849000000     5.819000000    -0.667000000
C     1.418000000     6.079000000    -1.985000000
H     0.850000000     6.999000000    -2.097000000
C     1.785000000     5.274000000    -3.055000000
O     1.216000000     5.709000000    -4.314000000
C     0.928000000     4.792000000    -5.288000000
C    -0.067000000     3.856000000    -5.107000000
H    -0.720000000     3.800000000    -4.240000000
C     1.651000000     4.747000000    -6.508000000
H     2.468000000     5.463000000    -6.535000000
C     1.484000000     3.814000000    -7.512000000
H     2.054000000     3.720000000    -8.433000000
C     0.461000000     2.848000000    -7.300000000
H     0.115000000     2.084000000    -7.991000000
C    -0.248000000     2.866000000    -6.074000000
O    -1.396000000     2.122000000    -5.991000000
C    -1.567000000     0.921000000    -5.419000000
C    -2.868000000     0.407000000    -5.405000000
H    -3.746000000     0.820000000    -5.894000000
C    -3.092000000    -0.842000000    -4.812000000
O    -4.419000000    -1.287000000    -4.829000000
C    -4.842000000    -2.387000000    -4.159000000
C    -4.884000000    -3.578000000    -4.838000000
H    -4.569000000    -3.479000000    -5.873000000
C    -5.270000000    -4.797000000    -4.236000000
H    -5.195000000    -5.803000000    -4.640000000
C    -5.729000000    -4.709000000    -2.919000000
H    -6.086000000    -5.634000000    -2.474000000
C    -5.693000000    -3.480000000    -2.256000000
C    -5.205000000    -2.321000000    -2.837000000
H    -5.263000000    -1.356000000    -2.341000000
O    -6.935000000     3.256000000     0.986000000
H    -6.175000000     3.664000000     1.401000000
H    -6.562000000     2.655000000     0.341000000
O    -9.644000000     2.622000000    -2.095000000
H    -9.038000000     2.256000000    -2.738000000
H    -9.451000000     3.560000000    -2.090000000
O    -7.796000000     2.818000000     3.602000000
H    -7.249000000     3.114000000     2.874000000
H    -8.405000000     2.195000000     3.207000000
O    -2.067000000     7.452000000     0.564000000
H    -2.482000000     6.590000000     0.570000000
H    -2.362000000     7.866000000     1.376000000
O    -9.277000000     1.142000000     0.127000000
H    -9.264000000     1.581000000    -0.724000000
H    -9.788000000     1.725000000     0.689000000
O    -4.255000000     7.579000000    -1.889000000
H    -3.551000000     8.179000000    -2.134000000
H    -3.805000000     6.767000000    -1.652000000
O    -9.112000000    -1.640000000    -0.667000000
H    -8.219000000    -1.486000000    -0.978000000
H    -9.402000000    -0.787000000    -0.343000000
O    -2.922000000     4.953000000     0.248000000
H    -2.079000000     4.522000000     0.386000000
H    -3.399000000     4.367000000    -0.340000000
O    -6.952000000     0.044000000    -0.737000000
H    -6.149000000     0.522000000    -0.531000000
H    -7.636000000     0.504000000    -0.250000000
O    -8.630000000    -0.685000000     3.436000000
H    -8.562000000    -0.593000000     4.386000000
H    -7.864000000    -0.222000000     3.095000000
O    -2.539000000     5.017000000    -2.618000000
H    -1.762000000     4.960000000    -2.062000000
H    -3.046000000     4.234000000    -2.402000000
O    -2.667000000     6.771000000    -4.785000000
H    -2.716000000     7.580000000    -4.276000000
H    -2.536000000     6.084000000    -4.132000000
O    -4.832000000     4.327000000     2.246000000
H    -4.930000000     5.071000000     2.840000000
H    -3.985000000     4.469000000     1.823000000
O    -9.285000000     5.155000000    -2.483000000
H    -9.821000000     5.948000000    -2.484000000
H    -8.590000000     5.335000000    -3.116000000
O    -6.635000000     5.346000000    -4.486000000
H    -6.054000000     6.005000000    -4.106000000
H    -6.695000000     4.665000000    -3.817000000
O    -7.628000000     1.141000000    -3.595000000
H    -6.893000000     1.751000000    -3.533000000
H    -7.428000000     0.459000000    -2.954000000
O    -9.538000000     4.840000000     1.713000000
H    -8.840000000     4.292000000     1.355000000
H   -10.181000000     4.217000000     2.054000000
O    -0.603000000     3.987000000    -0.491000000
H    -0.869000000     3.148000000    -0.867000000
H     0.325000000     4.066000000    -0.713000000
O    -6.463000000     3.590000000    -2.358000000
H    -5.562000000     3.516000000    -2.043000000
H    -6.987000000     3.686000000    -1.562000000
