201
-1252.89043
C     0.863000000     1.865000000     5.037000000
H     1.921000000     1.858000000     4.785000000
C     0.258000000     0.606000000     4.989000000
C    -1.138000000     0.499000000     5.344000000
H    -1.668000000    -0.444000000     5.236000000
C     0.896000000    -0.511000000     4.245000000
O     2.320000000    -0.449000000     4.469000000
H     0.687000000    -0.391000000     3.171000000
O     0.430000000    -1.787000000     4.720000000
C     0.257000000    -2.760000000     3.751000000
C    -1.060000000    -2.914000000     3.240000000
H    -1.862000000    -2.395000000     3.757000000
C    -1.252000000    -3.874000000     2.274000000
O    -2.456000000    -3.864000000     1.683000000
C    -0.133000000    -4.507000000     1.675000000
C    -0.282000000    -5.418000000     0.464000000
H     0.469000000    -6.210000000     0.411000000
C    -0.238000000    -4.622000000    -0.824000000
C     0.898000000    -4.499000000    -1.625000000
H     1.744000000    -5.123000000    -1.347000000
H    -1.288000000    -5.816000000     0.616000000
C     1.143000000    -4.255000000     2.076000000
H     2.043000000    -4.613000000     1.582000000
C     1.326000000    -3.425000000     3.174000000
C     2.785000000    -3.135000000     3.601000000
H     3.414000000    -3.997000000     3.371000000
H     2.790000000    -2.908000000     4.669000000
C     3.259000000    -1.928000000     2.889000000
C     3.977000000    -2.033000000     1.694000000
H     4.326000000    -3.033000000     1.448000000
C     3.052000000    -0.675000000     3.344000000
C     3.666000000     0.396000000     2.695000000
H     3.527000000     1.409000000     3.064000000
C     4.322000000     0.319000000     1.464000000
O     4.536000000     1.470000000     0.724000000
C     3.793000000     1.594000000    -0.489000000
C     3.335000000     3.052000000    -0.751000000
C     3.349000000     3.735000000    -2.006000000
H     3.775000000     3.220000000    -2.863000000
C     2.726000000     3.693000000     0.364000000
H     2.686000000     3.243000000     1.352000000
O     4.560000000     1.156000000    -1.669000000
H     2.831000000     1.062000000    -0.468000000
C     4.552000000    -0.984000000     1.003000000
C     5.327000000    -1.243000000    -0.255000000
H     5.805000000    -2.205000000    -0.056000000
H     6.137000000    -0.514000000    -0.324000000
C     4.424000000    -1.310000000    -1.464000000
C     3.733000000    -2.495000000    -1.839000000
H     3.866000000    -3.509000000    -1.472000000
C     4.213000000    -0.062000000    -2.133000000
C     3.324000000    -0.077000000    -3.225000000
H     3.182000000     0.912000000    -3.654000000
C     2.740000000    -1.230000000    -3.688000000
O     1.748000000    -1.009000000    -4.665000000
C     0.409000000    -1.135000000    -4.164000000
C    -0.490000000    -0.037000000    -4.749000000
C    -0.058000000     1.265000000    -5.007000000
H     0.973000000     1.557000000    -4.823000000
C    -1.869000000    -0.273000000    -4.876000000
H    -2.271000000    -1.262000000    -4.669000000
O    -0.214000000    -2.386000000    -4.380000000
H     0.352000000    -0.928000000    -3.085000000
C     2.928000000    -2.426000000    -3.056000000
C     2.271000000    -3.727000000    -3.545000000
H     2.824000000    -4.630000000    -3.280000000
H     2.183000000    -3.641000000    -4.630000000
C     0.973000000    -3.874000000    -2.865000000
C    -0.183000000    -3.240000000    -3.319000000
C    -1.306000000    -3.228000000    -2.531000000
H    -2.151000000    -2.607000000    -2.820000000
C    -1.401000000    -3.944000000    -1.315000000
O    -2.640000000    -4.043000000    -0.682000000
C    -2.665000000    -3.112000000     0.469000000
H    -1.908000000    -2.323000000     0.348000000
C    -4.015000000    -2.469000000     0.614000000
C    -4.559000000    -2.152000000     1.876000000
H    -4.063000000    -2.455000000     2.794000000
C    -4.643000000    -1.940000000    -0.538000000
H    -4.205000000    -2.160000000    -1.508000000
C    -5.736000000    -1.048000000    -0.419000000
O    -6.305000000    -0.334000000    -1.535000000
C    -6.283000000    -0.735000000     0.820000000
H    -7.106000000    -0.033000000     0.934000000
C    -5.707000000    -1.272000000     1.962000000
O    -6.215000000    -0.948000000     3.114000000
C    -5.494000000    -0.845000000     4.285000000
C    -4.693000000     0.228000000     4.588000000
H    -4.666000000     0.980000000     3.803000000
C    -5.505000000    -2.006000000     5.185000000
H    -6.147000000    -2.827000000     4.877000000
C    -4.748000000    -1.906000000     6.333000000
H    -4.737000000    -2.737000000     7.033000000
C    -3.924000000    -0.786000000     6.569000000
H    -3.256000000    -0.814000000     7.426000000
C    -3.921000000     0.311000000     5.698000000
O    -3.239000000     1.523000000     5.827000000
C    -1.879000000     1.579000000     5.677000000
C    -1.244000000     2.818000000     5.766000000
H    -1.813000000     3.742000000     5.841000000
C     0.087000000     2.975000000     5.473000000
O     0.743000000     4.176000000     5.542000000
C     1.735000000     4.514000000     4.741000000
C     1.387000000     5.085000000     3.516000000
H     0.356000000     5.157000000     3.180000000
C     3.045000000     4.316000000     5.081000000
H     3.227000000     3.879000000     6.060000000
C     4.059000000     4.769000000     4.300000000
H     5.078000000     4.583000000     4.631000000
C     3.784000000     5.402000000     3.088000000
H     4.615000000     5.768000000     2.492000000
C     2.465000000     5.492000000     2.684000000
O     2.179000000     5.855000000     1.400000000
C     2.374000000     5.033000000     0.255000000
C     2.426000000     5.678000000    -0.995000000
H     2.193000000     6.725000000    -1.170000000
C     2.841000000     5.001000000    -2.133000000
O     2.874000000     5.731000000    -3.298000000
C     2.476000000     5.048000000    -4.436000000
C     1.173000000     4.705000000    -4.544000000
H     0.375000000     5.008000000    -3.872000000
C     3.473000000     4.737000000    -5.387000000
H     4.534000000     4.913000000    -5.227000000
C     3.066000000     4.049000000    -6.492000000
H     3.837000000     3.742000000    -7.194000000
C     1.751000000     3.676000000    -6.645000000
H     1.380000000     3.160000000    -7.527000000
C     0.768000000     4.009000000    -5.645000000
O    -0.490000000     3.577000000    -5.713000000
C    -0.894000000     2.266000000    -5.497000000
C    -2.257000000     1.980000000    -5.706000000
H    -2.975000000     2.761000000    -5.939000000
C    -2.719000000     0.692000000    -5.434000000
O    -4.008000000     0.360000000    -5.740000000
C    -4.815000000    -0.388000000    -4.958000000
C    -5.168000000    -1.654000000    -5.380000000
H    -4.737000000    -2.069000000    -6.288000000
C    -5.962000000    -2.426000000    -4.547000000
H    -6.330000000    -3.427000000    -4.761000000
C    -6.347000000    -2.018000000    -3.248000000
H    -6.845000000    -2.743000000    -2.609000000
C    -6.058000000    -0.729000000    -2.810000000
C    -5.218000000     0.043000000    -3.673000000
H    -4.832000000     0.961000000    -3.238000000
O    -8.064000000     6.042000000    -3.190000000
H    -8.368000000     5.368000000    -3.798000000
H    -8.026000000     5.601000000    -2.342000000
O    -8.997000000     2.173000000    -2.081000000
H    -8.834000000     1.841000000    -2.964000000
H    -9.415000000     1.444000000    -1.624000000
O    -4.925000000     8.475000000     0.830000000
H    -4.873000000     7.752000000     0.204000000
H    -4.012000000     8.687000000     1.026000000
O    -6.058000000     2.391000000     2.353000000
H    -6.996000000     2.568000000     2.275000000
H    -5.711000000     2.543000000     1.474000000
O    -2.017000000     5.220000000     1.525000000
H    -2.826000000     5.561000000     1.143000000
H    -1.422000000     5.128000000     0.781000000
O    -3.924000000     4.044000000     3.414000000
H    -3.120000000     3.998000000     2.897000000
H    -4.567000000     3.552000000     2.903000000
O    -7.067000000     2.889000000    -4.201000000
H    -7.093000000     2.830000000    -3.246000000
H    -6.485000000     3.627000000    -4.380000000
O    -1.897000000     6.186000000    -5.075000000
H    -2.771000000     6.568000000    -5.156000000
H    -1.897000000     5.766000000    -4.215000000
O    -5.842000000     3.257000000     5.342000000
H    -5.174000000     3.114000000     4.670000000
H    -5.728000000     4.171000000     5.602000000
O    -3.054000000     7.932000000    -2.897000000
H    -3.500000000     8.583000000    -3.438000000
H    -3.762000000     7.448000000    -2.472000000
O    -7.290000000     4.219000000    -1.279000000
H    -6.554000000     3.788000000    -0.846000000
H    -7.950000000     3.532000000    -1.372000000
O    -8.383000000     3.786000000     1.526000000
H    -9.277000000     3.802000000     1.185000000
H    -7.957000000     4.539000000     1.117000000
O    -2.040000000     5.151000000    -2.495000000
H    -1.337000000     4.848000000    -1.921000000
H    -2.809000000     4.653000000    -2.216000000
O    -7.421000000     6.276000000     0.418000000
H    -8.205000000     6.803000000     0.267000000
H    -7.339000000     5.736000000    -0.368000000
O    -5.941000000     5.958000000     3.980000000
H    -5.165000000     5.414000000     3.844000000
H    -5.681000000     6.826000000     3.673000000
O    -4.616000000     4.344000000    -4.497000000
H    -4.360000000     4.205000000    -3.585000000
H    -4.467000000     5.278000000    -4.648000000
O    -0.363000000     6.350000000    -0.243000000
H     0.015000000     7.046000000     0.295000000
H    -0.174000000     6.613000000    -1.143000000
O    -5.200000000     6.652000000    -1.918000000
H    -5.993000000     6.329000000    -2.345000000
H    -4.737000000     5.860000000    -1.643000000
O    -4.632000000     5.614000000     0.741000000
H    -5.421000000     5.737000000     1.269000000
H    -4.659000000     4.694000000     0.480000000
