201
-1229.57994
C     1.066000000     2.672000000     4.280000000
H     2.061000000     2.740000000     3.847000000
C     0.477000000     1.408000000     4.539000000
C    -0.839000000     1.380000000     5.038000000
H    -1.254000000     0.375000000     5.024000000
C     1.166000000     0.064000000     4.164000000
O     2.688000000     0.203000000     4.012000000
H     0.721000000    -0.207000000     3.195000000
O     0.856000000    -1.118000000     4.924000000
C     0.602000000    -2.283000000     4.174000000
C    -0.734000000    -2.530000000     3.949000000
H    -1.560000000    -1.936000000     4.330000000
C    -1.072000000    -3.519000000     3.100000000
O    -2.400000000    -3.582000000     2.673000000
C    -0.111000000    -4.291000000     2.456000000
C    -0.453000000    -5.385000000     1.425000000
H     0.224000000    -6.242000000     1.423000000
C    -0.546000000    -4.764000000     0.003000000
C     0.632000000    -4.881000000    -0.825000000
H     1.554000000    -5.245000000    -0.377000000
H    -1.403000000    -5.817000000     1.749000000
C     1.209000000    -4.041000000     2.710000000
H     2.006000000    -4.626000000     2.259000000
C     1.618000000    -2.992000000     3.554000000
C     3.068000000    -2.535000000     3.754000000
H     3.766000000    -3.372000000     3.809000000
H     3.210000000    -2.081000000     4.737000000
C     3.485000000    -1.537000000     2.620000000
C     4.099000000    -1.984000000     1.471000000
H     4.306000000    -3.045000000     1.362000000
C     3.379000000    -0.212000000     2.865000000
C     3.893000000     0.718000000     1.997000000
H     3.897000000     1.788000000     2.190000000
C     4.477000000     0.323000000     0.825000000
O     4.748000000     1.243000000    -0.128000000
C     3.831000000     1.320000000    -1.262000000
C     3.490000000     2.777000000    -1.507000000
C     2.951000000     3.173000000    -2.767000000
H     2.850000000     2.481000000    -3.599000000
C     3.439000000     3.748000000    -0.449000000
H     3.704000000     3.500000000     0.575000000
O     4.464000000     0.711000000    -2.379000000
H     2.866000000     0.832000000    -1.060000000
C     4.626000000    -1.036000000     0.572000000
C     5.398000000    -1.446000000    -0.677000000
H     5.970000000    -2.361000000    -0.511000000
H     6.181000000    -0.721000000    -0.910000000
C     4.411000000    -1.672000000    -1.862000000
C     3.792000000    -2.919000000    -2.073000000
H     3.964000000    -3.796000000    -1.455000000
C     4.028000000    -0.576000000    -2.628000000
C     3.075000000    -0.748000000    -3.640000000
H     2.736000000     0.092000000    -4.241000000
C     2.374000000    -1.962000000    -3.771000000
O     1.239000000    -2.047000000    -4.586000000
C    -0.048000000    -1.908000000    -3.960000000
C    -0.988000000    -0.909000000    -4.701000000
C    -0.370000000     0.119000000    -5.419000000
H     0.694000000     0.132000000    -5.642000000
C    -2.393000000    -0.948000000    -4.649000000
H    -2.840000000    -1.736000000    -4.049000000
O    -0.688000000    -3.145000000    -3.788000000
H     0.035000000    -1.388000000    -2.994000000
C     2.672000000    -3.025000000    -2.939000000
C     1.851000000    -4.329000000    -2.960000000
H     2.542000000    -5.121000000    -2.662000000
H     1.681000000    -4.632000000    -3.995000000
C     0.616000000    -4.398000000    -2.150000000
C    -0.584000000    -3.813000000    -2.629000000
C    -1.709000000    -3.779000000    -1.808000000
H    -2.625000000    -3.346000000    -2.202000000
C    -1.709000000    -4.189000000    -0.504000000
O    -2.800000000    -3.985000000     0.271000000
C    -2.739000000    -3.033000000     1.401000000
H    -1.996000000    -2.266000000     1.136000000
C    -3.979000000    -2.087000000     1.474000000
C    -4.598000000    -1.715000000     2.663000000
H    -4.170000000    -1.984000000     3.625000000
C    -4.397000000    -1.516000000     0.261000000
H    -3.841000000    -1.621000000    -0.667000000
C    -5.457000000    -0.622000000     0.278000000
O    -5.774000000    -0.010000000    -0.867000000
C    -6.062000000    -0.194000000     1.499000000
H    -6.925000000     0.462000000     1.582000000
C    -5.628000000    -0.808000000     2.683000000
O    -6.205000000    -0.390000000     3.892000000
C    -5.353000000    -0.104000000     4.922000000
C    -4.420000000     0.897000000     4.769000000
H    -4.279000000     1.408000000     3.820000000
C    -5.533000000    -0.691000000     6.182000000
H    -6.149000000    -1.577000000     6.315000000
C    -4.855000000    -0.211000000     7.337000000
H    -4.994000000    -0.726000000     8.284000000
C    -3.904000000     0.821000000     7.193000000
H    -3.347000000     1.229000000     8.032000000
C    -3.624000000     1.319000000     5.882000000
O    -2.905000000     2.413000000     5.844000000
C    -1.605000000     2.460000000     5.358000000
C    -0.936000000     3.709000000     5.169000000
H    -1.519000000     4.550000000     5.535000000
C     0.321000000     3.851000000     4.679000000
O     0.940000000     5.101000000     4.585000000
C     2.055000000     5.372000000     3.773000000
C     1.995000000     5.507000000     2.434000000
H     1.001000000     5.573000000     1.999000000
C     3.339000000     5.326000000     4.365000000
H     3.350000000     5.193000000     5.444000000
C     4.475000000     5.526000000     3.632000000
H     5.450000000     5.386000000     4.090000000
C     4.404000000     5.761000000     2.274000000
H     5.329000000     5.960000000     1.740000000
C     3.128000000     5.653000000     1.648000000
O     3.094000000     5.950000000     0.317000000
C     3.051000000     5.010000000    -0.689000000
C     2.464000000     5.293000000    -1.928000000
H     2.227000000     6.320000000    -2.194000000
C     2.468000000     4.444000000    -2.942000000
O     1.867000000     4.761000000    -4.099000000
C     1.871000000     3.963000000    -5.223000000
C     0.718000000     3.363000000    -5.658000000
H    -0.224000000     3.501000000    -5.133000000
C     3.056000000     3.737000000    -5.917000000
H     3.932000000     4.244000000    -5.522000000
C     3.054000000     2.861000000    -7.024000000
H     3.917000000     2.810000000    -7.683000000
C     1.854000000     2.180000000    -7.354000000
H     1.842000000     1.583000000    -8.262000000
C     0.711000000     2.456000000    -6.676000000
O    -0.511000000     1.912000000    -7.023000000
C    -1.113000000     0.969000000    -6.201000000
C    -2.496000000     0.861000000    -6.218000000
H    -3.041000000     1.650000000    -6.731000000
C    -3.147000000    -0.081000000    -5.440000000
O    -4.530000000    -0.051000000    -5.375000000
C    -5.231000000    -0.645000000    -4.365000000
C    -5.896000000    -1.841000000    -4.611000000
H    -5.910000000    -2.334000000    -5.580000000
C    -6.456000000    -2.536000000    -3.494000000
H    -6.681000000    -3.593000000    -3.608000000
C    -6.415000000    -1.937000000    -2.223000000
H    -6.719000000    -2.552000000    -1.380000000
C    -5.885000000    -0.687000000    -2.109000000
C    -5.278000000    -0.042000000    -3.116000000
H    -4.802000000     0.927000000    -2.982000000
O    -4.157000000     8.519000000    -0.955000000
H    -4.282000000     7.961000000    -1.723000000
H    -3.779000000     7.937000000    -0.295000000
O    -4.979000000     5.937000000     1.214000000
H    -5.936000000     5.946000000     1.185000000
H    -4.735000000     5.129000000     0.762000000
O    -2.964000000     4.242000000     2.500000000
H    -3.639000000     3.965000000     1.881000000
H    -2.153000000     3.872000000     2.151000000
O    -2.346000000     6.612000000     0.503000000
H    -1.932000000     6.632000000     1.365000000
H    -3.186000000     6.177000000     0.650000000
O    -5.180000000     4.656000000     4.116000000
H    -4.406000000     4.354000000     3.641000000
H    -5.291000000     5.566000000     3.840000000
O    -7.898000000     3.805000000    -3.458000000
H    -8.753000000     3.390000000    -3.345000000
H    -7.344000000     3.398000000    -2.792000000
O    -2.719000000     6.485000000    -4.872000000
H    -2.197000000     7.244000000    -5.130000000
H    -2.097000000     5.904000000    -4.432000000
O    -7.692000000     3.388000000     4.715000000
H    -6.841000000     3.694000000     4.400000000
H    -8.248000000     4.167000000     4.693000000
O    -4.879000000     7.973000000    -3.681000000
H    -5.667000000     7.649000000    -3.245000000
H    -4.545000000     7.217000000    -4.163000000
O    -6.606000000     2.629000000    -1.162000000
H    -5.896000000     3.122000000    -0.749000000
H    -6.407000000     1.713000000    -0.965000000
O    -1.878000000     5.234000000    -2.490000000
H    -1.375000000     5.330000000    -1.682000000
H    -2.638000000     4.708000000    -2.238000000
O    -1.278000000     6.479000000     3.285000000
H    -2.035000000     7.016000000     3.519000000
H    -1.604000000     5.580000000     3.313000000
O    -9.066000000     3.817000000    -0.051000000
H    -9.883000000     3.343000000    -0.204000000
H    -8.567000000     3.700000000    -0.859000000
O    -3.584000000     3.497000000    -4.349000000
H    -3.009000000     4.260000000    -4.298000000
H    -3.768000000     3.273000000    -3.437000000
O    -6.991000000     8.168000000    -1.528000000
H    -6.861000000     8.792000000    -0.813000000
H    -6.702000000     7.329000000    -1.169000000
O    -5.096000000     3.770000000    -7.175000000
H    -5.081000000     4.668000000    -7.505000000
H    -5.311000000     3.860000000    -6.246000000
O    -0.249000000     3.538000000     1.680000000
H     0.495000000     3.254000000     2.210000000
H    -0.169000000     3.039000000     0.867000000
O    -5.361000000     5.616000000    -2.038000000
H    -6.172000000     5.298000000    -1.642000000
H    -4.735000000     4.903000000    -1.908000000
O    -7.474000000     6.051000000     0.193000000
H    -8.106000000     6.758000000     0.325000000
H    -8.001000000     5.253000000     0.204000000
