201
-1245.34144
C     2.661000000     1.698000000     3.471000000
H     3.285000000     1.467000000     2.611000000
C     1.833000000     0.715000000     4.048000000
C     0.903000000     1.017000000     5.036000000
H     0.307000000     0.239000000     5.505000000
C     1.942000000    -0.716000000     3.537000000
O     3.306000000    -1.035000000     3.399000000
H     1.586000000    -0.806000000     2.500000000
O     1.377000000    -1.649000000     4.390000000
C     0.440000000    -2.564000000     3.941000000
C    -0.918000000    -2.317000000     4.005000000
H    -1.246000000    -1.439000000     4.556000000
C    -1.828000000    -3.076000000     3.203000000
O    -3.123000000    -2.655000000     3.112000000
C    -1.327000000    -4.183000000     2.529000000
C    -2.278000000    -4.987000000     1.617000000
H    -1.761000000    -5.923000000     1.396000000
C    -2.411000000    -4.207000000     0.294000000
C    -1.533000000    -4.532000000    -0.731000000
H    -0.849000000    -5.373000000    -0.658000000
H    -3.294000000    -5.151000000     1.982000000
C     0.069000000    -4.432000000     2.440000000
H     0.400000000    -5.331000000     1.927000000
C     0.905000000    -3.616000000     3.166000000
C     2.472000000    -3.844000000     3.143000000
H     2.677000000    -4.899000000     2.948000000
H     2.871000000    -3.601000000     4.130000000
C     3.219000000    -3.091000000     2.064000000
C     3.300000000    -3.648000000     0.789000000
H     2.853000000    -4.633000000     0.681000000
C     3.690000000    -1.767000000     2.290000000
C     4.370000000    -1.081000000     1.300000000
H     4.754000000    -0.096000000     1.554000000
C     4.400000000    -1.611000000     0.010000000
O     4.871000000    -0.796000000    -1.021000000
C     3.922000000    -0.133000000    -1.871000000
C     4.228000000     1.339000000    -2.052000000
C     3.689000000     1.995000000    -3.179000000
H     3.151000000     1.517000000    -3.993000000
C     5.011000000     2.055000000    -1.142000000
H     5.495000000     1.575000000    -0.295000000
O     3.768000000    -0.901000000    -3.135000000
H     2.942000000    -0.083000000    -1.374000000
C     3.882000000    -2.877000000    -0.245000000
C     3.975000000    -3.418000000    -1.668000000
H     3.999000000    -4.509000000    -1.707000000
H     4.871000000    -3.104000000    -2.207000000
C     2.805000000    -2.931000000    -2.473000000
C     1.627000000    -3.790000000    -2.510000000
H     1.589000000    -4.715000000    -1.940000000
C     2.754000000    -1.782000000    -3.319000000
C     1.608000000    -1.466000000    -4.067000000
H     1.551000000    -0.463000000    -4.481000000
C     0.472000000    -2.276000000    -3.948000000
O    -0.701000000    -1.816000000    -4.528000000
C    -1.705000000    -1.238000000    -3.620000000
C    -2.290000000     0.039000000    -4.238000000
C    -1.492000000     1.048000000    -4.752000000
H    -0.422000000     0.869000000    -4.805000000
C    -3.653000000     0.265000000    -4.217000000
H    -4.316000000    -0.554000000    -3.948000000
O    -2.703000000    -2.228000000    -3.334000000
H    -1.275000000    -0.917000000    -2.659000000
C     0.536000000    -3.481000000    -3.257000000
C    -0.731000000    -4.254000000    -3.159000000
H    -0.474000000    -5.313000000    -3.097000000
H    -1.393000000    -4.190000000    -4.025000000
C    -1.609000000    -3.855000000    -1.968000000
C    -2.598000000    -2.886000000    -2.126000000
C    -3.498000000    -2.669000000    -1.191000000
H    -4.305000000    -1.966000000    -1.382000000
C    -3.386000000    -3.226000000     0.069000000
O    -4.131000000    -2.669000000     1.119000000
C    -3.320000000    -1.851000000     1.967000000
H    -2.401000000    -1.594000000     1.420000000
C    -4.090000000    -0.542000000     2.141000000
C    -3.944000000     0.139000000     3.330000000
H    -3.314000000    -0.340000000     4.074000000
C    -4.820000000     0.032000000     1.084000000
H    -4.697000000    -0.424000000     0.105000000
C    -5.500000000     1.301000000     1.266000000
O    -6.064000000     1.976000000     0.211000000
C    -5.371000000     1.890000000     2.480000000
H    -5.902000000     2.835000000     2.561000000
C    -4.623000000     1.314000000     3.480000000
O    -4.430000000     1.996000000     4.655000000
C    -3.493000000     1.664000000     5.578000000
C    -2.273000000     2.356000000     5.573000000
H    -2.172000000     3.062000000     4.752000000
C    -3.644000000     0.629000000     6.494000000
H    -4.496000000    -0.044000000     6.456000000
C    -2.735000000     0.462000000     7.533000000
H    -2.924000000    -0.452000000     8.090000000
C    -1.524000000     1.182000000     7.565000000
H    -0.726000000     0.824000000     8.210000000
C    -1.300000000     2.121000000     6.570000000
O    -0.054000000     2.676000000     6.431000000
C     0.809000000     2.345000000     5.407000000
C     1.544000000     3.339000000     4.796000000
H     1.275000000     4.367000000     5.021000000
C     2.529000000     3.058000000     3.893000000
O     3.254000000     4.142000000     3.320000000
C     4.533000000     3.950000000     2.829000000
C     4.690000000     4.024000000     1.374000000
H     3.838000000     4.235000000     0.732000000
C     5.651000000     3.685000000     3.679000000
H     5.526000000     3.454000000     4.734000000
C     6.888000000     3.571000000     3.076000000
H     7.853000000     3.393000000     3.544000000
C     7.040000000     3.725000000     1.682000000
H     8.071000000     3.643000000     1.348000000
C     5.991000000     4.003000000     0.812000000
O     6.205000000     4.110000000    -0.588000000
C     5.357000000     3.396000000    -1.364000000
C     4.875000000     4.020000000    -2.508000000
H     5.180000000     5.045000000    -2.705000000
C     4.101000000     3.299000000    -3.450000000
O     3.629000000     3.954000000    -4.569000000
C     2.669000000     3.455000000    -5.426000000
C     1.316000000     3.617000000    -5.024000000
H     1.056000000     4.075000000    -4.073000000
C     2.963000000     2.692000000    -6.510000000
H     3.969000000     2.393000000    -6.794000000
C     1.963000000     2.217000000    -7.356000000
H     2.091000000     1.602000000    -8.243000000
C     0.604000000     2.497000000    -7.057000000
H    -0.195000000     2.186000000    -7.725000000
C     0.246000000     3.134000000    -5.800000000
O    -1.100000000     3.293000000    -5.422000000
C    -1.956000000     2.244000000    -5.152000000
C    -3.306000000     2.494000000    -5.167000000
H    -3.666000000     3.459000000    -5.512000000
C    -4.143000000     1.480000000    -4.674000000
O    -5.506000000     1.773000000    -4.494000000
C    -6.232000000     1.387000000    -3.419000000
C    -7.403000000     0.599000000    -3.559000000
H    -7.715000000     0.288000000    -4.552000000
C    -8.067000000     0.157000000    -2.431000000
H    -8.920000000    -0.514000000    -2.485000000
C    -7.584000000     0.549000000    -1.175000000
H    -8.147000000     0.407000000    -0.256000000
C    -6.433000000     1.343000000    -1.009000000
C    -5.768000000     1.743000000    -2.174000000
H    -4.921000000     2.402000000    -2.001000000
O    -0.755000000     5.301000000    -2.536000000
H    -1.478000000     5.117000000    -1.937000000
H     0.033000000     5.156000000    -2.012000000
O     1.568000000     6.919000000     2.981000000
H     0.880000000     6.310000000     3.249000000
H     1.744000000     6.695000000     2.067000000
O     0.022000000     5.183000000     0.700000000
H     0.764000000     4.853000000     0.194000000
H    -0.707000000     5.190000000     0.079000000
O    -2.906000000     7.384000000     0.059000000
H    -2.665000000     6.480000000     0.262000000
H    -3.854000000     7.358000000    -0.065000000
O    -4.343000000     5.458000000    -2.648000000
H    -4.855000000     6.067000000    -2.116000000
H    -3.525000000     5.347000000    -2.165000000
O    -5.621000000     6.957000000     4.217000000
H    -4.966000000     6.326000000     3.919000000
H    -5.984000000     6.567000000     5.013000000
O     1.563000000     2.572000000     0.313000000
H     2.060000000     1.875000000     0.741000000
H     0.666000000     2.454000000     0.627000000
O    -8.168000000     4.003000000     0.343000000
H    -7.324000000     4.454000000     0.349000000
H    -7.942000000     3.073000000     0.333000000
O    -0.956000000     5.825000000     3.458000000
H    -1.897000000     5.671000000     3.543000000
H    -0.803000000     5.856000000     2.513000000
O    -6.736000000     5.247000000    -4.539000000
H    -7.124000000     6.028000000    -4.144000000
H    -5.889000000     5.153000000    -4.103000000
O    -7.515000000     6.812000000     2.276000000
H    -7.168000000     6.031000000     1.846000000
H    -6.887000000     7.001000000     2.973000000
O     2.152000000     6.984000000    -2.809000000
H     2.234000000     7.604000000    -2.085000000
H     1.996000000     6.140000000    -2.386000000
O    -5.881000000     5.422000000     0.580000000
H    -5.125000000     4.934000000     0.907000000
H    -5.513000000     6.040000000    -0.051000000
O     1.724000000     4.622000000    -1.519000000
H     1.789000000     3.734000000    -1.169000000
H     2.430000000     5.103000000    -1.086000000
O    -2.344000000     9.287000000    -3.795000000
H    -2.408000000     9.628000000    -4.687000000
H    -2.095000000     8.370000000    -3.906000000
O    -2.385000000     6.399000000    -4.338000000
H    -1.668000000     5.791000000    -4.158000000
H    -3.161000000     5.967000000    -3.980000000
O    -5.518000000     7.402000000    -1.236000000
H    -6.133000000     7.934000000    -0.731000000
H    -5.288000000     7.949000000    -1.987000000
O    -0.633000000     8.695000000     0.261000000
H    -1.503000000     8.299000000     0.228000000
H    -0.389000000     8.662000000     1.187000000
O    -3.688000000     4.772000000     3.492000000
H    -4.007000000     3.923000000     3.800000000
H    -3.382000000     4.603000000     2.601000000
