201
-1245.66856
C     2.520000000     1.884000000     4.203000000
H     3.413000000     1.484000000     3.728000000
C     1.424000000     0.987000000     4.436000000
C     0.278000000     1.519000000     4.990000000
H    -0.593000000     0.883000000     5.120000000
C     1.435000000    -0.404000000     3.950000000
O     2.771000000    -0.983000000     3.943000000
H     1.189000000    -0.510000000     2.883000000
O     0.708000000    -1.326000000     4.691000000
C    -0.073000000    -2.236000000     4.018000000
C    -1.446000000    -1.963000000     3.938000000
H    -1.834000000    -1.117000000     4.499000000
C    -2.216000000    -2.722000000     3.069000000
O    -3.524000000    -2.242000000     2.777000000
C    -1.662000000    -3.858000000     2.425000000
C    -2.463000000    -4.700000000     1.421000000
H    -2.114000000    -5.735000000     1.426000000
C    -2.279000000    -4.075000000     0.051000000
C    -1.339000000    -4.568000000    -0.836000000
H    -0.580000000    -5.272000000    -0.503000000
H    -3.480000000    -4.809000000     1.802000000
C    -0.287000000    -4.118000000     2.622000000
H     0.182000000    -4.955000000     2.111000000
C     0.509000000    -3.383000000     3.467000000
C     2.007000000    -3.685000000     3.679000000
H     2.243000000    -4.748000000     3.601000000
H     2.263000000    -3.446000000     4.714000000
C     2.854000000    -2.969000000     2.647000000
C     3.192000000    -3.592000000     1.461000000
H     2.948000000    -4.635000000     1.276000000
C     3.178000000    -1.626000000     2.807000000
C     3.865000000    -0.880000000     1.847000000
H     4.057000000     0.176000000     2.013000000
C     4.247000000    -1.502000000     0.675000000
O     4.854000000    -0.747000000    -0.295000000
C     3.947000000    -0.135000000    -1.266000000
C     4.294000000     1.287000000    -1.481000000
C     3.879000000     1.980000000    -2.616000000
H     3.226000000     1.414000000    -3.276000000
C     5.148000000     1.933000000    -0.551000000
H     5.603000000     1.555000000     0.361000000
O     4.040000000    -0.966000000    -2.509000000
H     2.891000000    -0.016000000    -0.980000000
C     3.880000000    -2.869000000     0.432000000
C     4.193000000    -3.438000000    -0.943000000
H     4.338000000    -4.520000000    -0.912000000
H     5.170000000    -3.086000000    -1.282000000
C     3.028000000    -3.151000000    -1.899000000
C     1.928000000    -4.046000000    -2.053000000
H     1.920000000    -5.052000000    -1.642000000
C     3.087000000    -1.970000000    -2.723000000
C     2.121000000    -1.809000000    -3.721000000
H     2.138000000    -0.915000000    -4.339000000
C     1.030000000    -2.659000000    -3.865000000
O     0.004000000    -2.208000000    -4.647000000
C    -1.188000000    -1.649000000    -3.960000000
C    -1.672000000    -0.323000000    -4.609000000
C    -0.806000000     0.701000000    -4.876000000
H     0.219000000     0.607000000    -4.524000000
C    -3.068000000    -0.143000000    -4.867000000
H    -3.779000000    -0.946000000    -4.687000000
O    -2.208000000    -2.616000000    -3.866000000
H    -0.987000000    -1.515000000    -2.886000000
C     0.947000000    -3.717000000    -2.977000000
C    -0.234000000    -4.646000000    -3.078000000
H     0.168000000    -5.614000000    -2.772000000
H    -0.511000000    -4.780000000    -4.126000000
C    -1.346000000    -4.119000000    -2.171000000
C    -2.314000000    -3.215000000    -2.630000000
C    -3.217000000    -2.659000000    -1.710000000
H    -3.877000000    -1.834000000    -1.967000000
C    -3.204000000    -3.109000000    -0.389000000
O    -4.176000000    -2.558000000     0.460000000
C    -3.642000000    -1.641000000     1.427000000
H    -2.642000000    -1.273000000     1.154000000
C    -4.475000000    -0.284000000     1.465000000
C    -4.338000000     0.561000000     2.560000000
H    -3.709000000     0.267000000     3.397000000
C    -5.251000000     0.079000000     0.359000000
H    -5.183000000    -0.462000000    -0.582000000
C    -5.926000000     1.296000000     0.302000000
O    -6.584000000     1.731000000    -0.858000000
C    -5.789000000     2.171000000     1.447000000
H    -6.279000000     3.141000000     1.447000000
C    -5.045000000     1.789000000     2.562000000
O    -4.915000000     2.707000000     3.517000000
C    -4.278000000     2.523000000     4.729000000
C    -2.961000000     2.908000000     4.772000000
H    -2.480000000     3.322000000     3.890000000
C    -4.838000000     1.951000000     5.912000000
H    -5.863000000     1.587000000     5.918000000
C    -4.006000000     1.764000000     7.121000000
H    -4.379000000     1.130000000     7.921000000
C    -2.703000000     2.257000000     7.116000000
H    -2.151000000     2.206000000     8.051000000
C    -2.222000000     2.832000000     5.966000000
O    -0.930000000     3.360000000     6.053000000
C     0.175000000     2.856000000     5.317000000
C     1.239000000     3.741000000     5.061000000
H     1.129000000     4.794000000     5.307000000
C     2.386000000     3.244000000     4.416000000
O     3.415000000     4.194000000     4.046000000
C     4.587000000     3.963000000     3.426000000
C     4.845000000     4.257000000     2.052000000
H     4.037000000     4.695000000     1.471000000
C     5.564000000     3.273000000     4.111000000
H     5.317000000     2.919000000     5.108000000
C     6.751000000     2.832000000     3.490000000
H     7.471000000     2.363000000     4.155000000
C     6.978000000     3.021000000     2.147000000
H     7.923000000     2.729000000     1.697000000
C     6.047000000     3.845000000     1.496000000
O     6.140000000     4.054000000     0.146000000
C     5.367000000     3.324000000    -0.693000000
C     4.963000000     3.932000000    -1.829000000
H     5.277000000     4.956000000    -2.015000000
C     4.252000000     3.280000000    -2.774000000
O     3.872000000     3.870000000    -3.948000000
C     3.134000000     3.311000000    -4.942000000
C     1.764000000     3.493000000    -5.005000000
H     1.216000000     4.144000000    -4.328000000
C     3.832000000     2.460000000    -5.830000000
H     4.905000000     2.287000000    -5.816000000
C     3.016000000     1.677000000    -6.666000000
H     3.448000000     0.890000000    -7.279000000
C     1.641000000     1.913000000    -6.800000000
H     1.042000000     1.398000000    -7.547000000
C     1.034000000     2.801000000    -5.952000000
O    -0.424000000     2.881000000    -5.900000000
C    -1.255000000     1.918000000    -5.400000000
C    -2.641000000     2.124000000    -5.521000000
H    -2.914000000     3.149000000    -5.760000000
C    -3.555000000     1.095000000    -5.289000000
O    -4.974000000     1.321000000    -5.403000000
C    -5.856000000     0.921000000    -4.423000000
C    -6.623000000    -0.225000000    -4.558000000
H    -6.653000000    -0.737000000    -5.517000000
C    -7.249000000    -0.791000000    -3.499000000
H    -7.771000000    -1.728000000    -3.678000000
C    -7.234000000    -0.230000000    -2.186000000
H    -7.606000000    -0.702000000    -1.280000000
C    -6.643000000     1.012000000    -2.086000000
C    -6.058000000     1.614000000    -3.226000000
H    -5.547000000     2.556000000    -3.044000000
O    -1.641000000     5.272000000    -3.783000000
H    -1.930000000     4.554000000    -3.221000000
H    -0.986000000     5.736000000    -3.262000000
O    -7.695000000     5.207000000    -3.627000000
H    -6.752000000     5.046000000    -3.605000000
H    -7.779000000     6.088000000    -3.994000000
O     0.203000000     4.552000000     0.736000000
H    -0.641000000     4.469000000     0.290000000
H    -0.005000000     4.988000000     1.562000000
O    -2.219000000     6.703000000    -0.971000000
H    -2.764000000     6.963000000    -1.714000000
H    -2.336000000     5.755000000    -0.908000000
O    -4.978000000     5.111000000    -2.472000000
H    -4.107000000     4.717000000    -2.425000000
H    -5.255000000     5.189000000    -1.559000000
O     2.060000000     7.033000000     0.819000000
H     1.267000000     7.516000000     0.583000000
H     2.138000000     7.149000000     1.766000000
O     2.132000000     2.636000000     0.953000000
H     1.812000000     3.469000000     0.606000000
H     1.394000000     2.286000000     1.453000000
O    -8.445000000     3.916000000    -0.911000000
H    -8.387000000     3.043000000    -0.521000000
H    -7.541000000     4.141000000    -1.129000000
O    -0.293000000     6.141000000     3.203000000
H    -0.178000000     6.543000000     4.064000000
H    -0.147000000     6.857000000     2.584000000
O    -4.724000000     5.024000000    -5.251000000
H    -5.096000000     5.903000000    -5.322000000
H    -4.749000000     4.828000000    -4.314000000
O    -5.832000000     8.188000000     0.273000000
H    -5.510000000     8.873000000    -0.313000000
H    -5.401000000     7.390000000    -0.033000000
O    -6.078000000     5.445000000     3.165000000
H    -5.780000000     6.132000000     3.760000000
H    -5.803000000     4.629000000     3.584000000
O     0.684000000     6.327000000    -2.130000000
H     0.835000000     5.382000000    -2.131000000
H     0.243000000     6.498000000    -1.298000000
O    -5.238000000     5.275000000     0.342000000
H    -4.310000000     5.090000000     0.486000000
H    -5.603000000     5.369000000     1.222000000
O     1.010000000     3.739000000    -1.876000000
H     1.018000000     3.733000000    -0.919000000
H     0.860000000     2.826000000    -2.120000000
O    -2.541000000     6.067000000    -6.393000000
H    -2.225000000     6.343000000    -5.532000000
H    -3.185000000     5.385000000    -6.204000000
O    -4.239000000     7.567000000     3.271000000
H    -3.709000000     6.816000000     3.004000000
H    -4.736000000     7.800000000     2.487000000
O    -0.220000000     8.253000000     0.094000000
H    -0.938000000     7.846000000    -0.390000000
H    -0.435000000     9.186000000     0.104000000
O    -2.767000000     5.677000000     2.288000000
H    -2.616000000     5.139000000     1.511000000
H    -1.919000000     5.701000000     2.732000000
