201
-1239.16807
C     3.455000000     0.939000000     4.381000000
H     4.350000000     0.546000000     3.905000000
C     2.267000000     0.219000000     4.467000000
C     1.210000000     0.783000000     5.140000000
H     0.272000000     0.234000000     5.150000000
C     2.121000000    -1.090000000     3.698000000
O     3.311000000    -1.810000000     3.474000000
H     1.579000000    -0.820000000     2.780000000
O     1.141000000    -1.960000000     4.397000000
C     0.233000000    -2.800000000     3.678000000
C    -1.049000000    -2.328000000     3.604000000
H    -1.393000000    -1.492000000     4.207000000
C    -2.003000000    -2.885000000     2.860000000
O    -3.244000000    -2.282000000     2.817000000
C    -1.643000000    -4.026000000     2.074000000
C    -2.668000000    -4.752000000     1.193000000
H    -2.391000000    -5.808000000     1.154000000
C    -2.831000000    -4.157000000    -0.174000000
C    -2.037000000    -4.582000000    -1.256000000
H    -1.415000000    -5.473000000    -1.230000000
H    -3.657000000    -4.691000000     1.650000000
C    -0.365000000    -4.596000000     2.187000000
H    -0.007000000    -5.404000000     1.555000000
C     0.578000000    -3.947000000     2.956000000
C     2.000000000    -4.392000000     2.910000000
H     2.015000000    -5.458000000     2.676000000
H     2.277000000    -4.271000000     3.960000000
C     2.834000000    -3.594000000     1.912000000
C     2.936000000    -4.085000000     0.559000000
H     2.499000000    -5.052000000     0.322000000
C     3.475000000    -2.415000000     2.278000000
C     4.080000000    -1.623000000     1.284000000
H     4.642000000    -0.721000000     1.510000000
C     4.138000000    -2.036000000    -0.022000000
O     4.680000000    -1.168000000    -0.999000000
C     3.688000000    -0.483000000    -1.839000000
C     4.111000000     0.950000000    -2.029000000
C     3.971000000     1.671000000    -3.185000000
H     3.484000000     1.167000000    -4.017000000
C     4.498000000     1.657000000    -0.846000000
H     4.627000000     1.141000000     0.103000000
O     3.582000000    -1.208000000    -3.060000000
H     2.683000000    -0.423000000    -1.396000000
C     3.446000000    -3.241000000    -0.390000000
C     3.534000000    -3.737000000    -1.827000000
H     3.623000000    -4.821000000    -1.925000000
H     4.496000000    -3.325000000    -2.140000000
C     2.406000000    -3.253000000    -2.707000000
C     1.257000000    -3.990000000    -2.759000000
H     1.229000000    -4.959000000    -2.266000000
C     2.511000000    -2.045000000    -3.302000000
C     1.480000000    -1.533000000    -4.042000000
H     1.522000000    -0.481000000    -4.312000000
C     0.308000000    -2.186000000    -4.152000000
O    -0.732000000    -1.542000000    -4.785000000
C    -1.663000000    -1.004000000    -3.787000000
C    -2.153000000     0.404000000    -4.176000000
C    -1.259000000     1.402000000    -4.500000000
H    -0.194000000     1.215000000    -4.386000000
C    -3.509000000     0.716000000    -4.123000000
H    -4.259000000    -0.060000000    -3.993000000
O    -2.794000000    -1.907000000    -3.687000000
H    -1.150000000    -0.827000000    -2.830000000
C     0.182000000    -3.452000000    -3.568000000
C    -1.100000000    -4.326000000    -3.621000000
H    -0.735000000    -5.341000000    -3.450000000
H    -1.598000000    -4.274000000    -4.591000000
C    -2.075000000    -3.898000000    -2.484000000
C    -2.895000000    -2.751000000    -2.603000000
C    -3.682000000    -2.318000000    -1.559000000
H    -4.308000000    -1.437000000    -1.670000000
C    -3.660000000    -3.031000000    -0.353000000
O    -4.404000000    -2.510000000     0.687000000
C    -3.597000000    -1.628000000     1.534000000
H    -2.702000000    -1.475000000     0.913000000
C    -4.224000000    -0.174000000     1.760000000
C    -3.907000000     0.350000000     2.997000000
H    -3.115000000    -0.152000000     3.548000000
C    -4.890000000     0.568000000     0.800000000
H    -5.165000000     0.225000000    -0.195000000
C    -5.378000000     1.842000000     1.163000000
O    -6.016000000     2.667000000     0.275000000
C    -5.167000000     2.332000000     2.418000000
H    -5.432000000     3.324000000     2.775000000
C    -4.447000000     1.583000000     3.308000000
O    -4.329000000     2.117000000     4.596000000
C    -3.340000000     1.813000000     5.518000000
C    -2.070000000     2.327000000     5.404000000
H    -1.826000000     2.913000000     4.522000000
C    -3.592000000     0.939000000     6.580000000
H    -4.536000000     0.402000000     6.632000000
C    -2.557000000     0.515000000     7.442000000
H    -2.764000000    -0.264000000     8.171000000
C    -1.284000000     1.029000000     7.330000000
H    -0.424000000     0.696000000     7.905000000
C    -1.053000000     2.007000000     6.353000000
O     0.139000000     2.656000000     6.128000000
C     1.285000000     2.039000000     5.709000000
C     2.470000000     2.791000000     5.627000000
H     2.538000000     3.714000000     6.196000000
C     3.583000000     2.224000000     4.956000000
O     4.782000000     2.895000000     4.916000000
C     5.486000000     2.847000000     3.711000000
C     4.891000000     3.165000000     2.512000000
H     3.809000000     3.247000000     2.440000000
C     6.833000000     2.559000000     3.786000000
H     7.389000000     2.323000000     4.689000000
C     7.546000000     2.437000000     2.586000000
H     8.598000000     2.166000000     2.561000000
C     7.002000000     2.792000000     1.367000000
H     7.531000000     2.988000000     0.438000000
C     5.682000000     3.170000000     1.342000000
O     5.119000000     3.707000000     0.195000000
C     4.835000000     3.008000000    -0.899000000
C     4.689000000     3.739000000    -2.093000000
H     4.713000000     4.826000000    -2.104000000
C     4.201000000     3.086000000    -3.194000000
O     4.006000000     3.819000000    -4.351000000
C     2.905000000     3.525000000    -5.101000000
C     1.598000000     3.740000000    -4.606000000
H     1.526000000     4.026000000    -3.560000000
C     3.041000000     3.212000000    -6.449000000
H     4.058000000     3.235000000    -6.831000000
C     1.948000000     3.030000000    -7.274000000
H     2.097000000     2.836000000    -8.333000000
C     0.691000000     3.312000000    -6.770000000
H    -0.206000000     3.299000000    -7.382000000
C     0.531000000     3.574000000    -5.384000000
O    -0.827000000     3.711000000    -4.920000000
C    -1.679000000     2.689000000    -4.769000000
C    -3.021000000     2.952000000    -4.773000000
H    -3.329000000     3.943000000    -5.096000000
C    -3.885000000     1.983000000    -4.448000000
O    -5.232000000     2.347000000    -4.476000000
C    -5.983000000     2.062000000    -3.368000000
C    -7.333000000     1.648000000    -3.581000000
H    -7.741000000     1.342000000    -4.541000000
C    -8.222000000     1.637000000    -2.526000000
H    -9.248000000     1.327000000    -2.704000000
C    -7.777000000     1.949000000    -1.249000000
H    -8.533000000     2.122000000    -0.487000000
C    -6.441000000     2.300000000    -1.011000000
C    -5.579000000     2.367000000    -2.103000000
H    -4.562000000     2.728000000    -1.971000000
O     0.454000000     9.037000000     0.370000000
H     1.068000000     8.410000000     0.751000000
H    -0.392000000     8.589000000     0.393000000
O    -6.157000000     7.559000000     1.771000000
H    -6.281000000     8.173000000     1.046000000
H    -5.464000000     6.971000000     1.471000000
O     1.275000000     5.829000000    -0.730000000
H     0.410000000     5.492000000    -0.964000000
H     1.615000000     6.202000000    -1.544000000
O    -7.518000000     5.924000000    -1.051000000
H    -6.623000000     5.904000000    -0.711000000
H    -7.562000000     6.735000000    -1.558000000
O    -0.618000000     6.751000000    -3.549000000
H    -0.794000000     6.111000000    -2.859000000
H     0.243000000     7.107000000    -3.332000000
O    -5.572000000     7.360000000    -4.609000000
H    -4.738000000     7.816000000    -4.499000000
H    -5.327000000     6.459000000    -4.822000000
O    -4.631000000     5.511000000     4.600000000
H    -3.931000000     5.762000000     3.997000000
H    -4.473000000     6.038000000     5.383000000
O     2.119000000     7.209000000    -3.077000000
H     2.491000000     8.075000000    -2.907000000
H     2.514000000     6.937000000    -3.905000000
O     0.030000000     5.404000000     5.171000000
H    -0.535000000     5.204000000     5.917000000
H    -0.328000000     4.883000000     4.453000000
O    -2.626000000     5.296000000     2.782000000
H    -1.681000000     5.238000000     2.922000000
H    -2.754000000     4.994000000     1.883000000
O    -4.671000000     5.861000000    -0.529000000
H    -3.973000000     5.307000000    -0.179000000
H    -4.396000000     6.054000000    -1.426000000
O    -1.768000000     9.354000000    -2.294000000
H    -1.012000000     8.903000000    -1.917000000
H    -2.242000000     8.671000000    -2.768000000
O    -3.375000000     9.577000000     0.679000000
H    -2.822000000     8.815000000     0.507000000
H    -4.129000000     9.461000000     0.100000000
O     3.246000000     6.834000000     1.721000000
H     2.742000000     6.561000000     0.954000000
H     4.130000000     6.985000000     1.385000000
O    -3.358000000     5.854000000    -2.889000000
H    -2.737000000     5.445000000    -2.286000000
H    -2.839000000     6.052000000    -3.668000000
O    -1.672000000     7.291000000     0.511000000
H    -1.564000000     6.475000000     0.024000000
H    -2.207000000     7.050000000     1.267000000
O    -1.711000000    11.579000000    -0.503000000
H    -2.116000000    10.713000000    -0.449000000
H    -2.313000000    12.091000000    -1.043000000
O    -0.283000000     7.136000000    -6.318000000
H    -0.631000000     6.904000000    -5.457000000
H    -0.338000000     8.092000000    -6.349000000
O     0.413000000     5.362000000     1.838000000
H     0.689000000     5.411000000     0.922000000
H     1.089000000     4.834000000     2.264000000
