201
-1253.15291
C     2.750000000     1.415000000     4.185000000
H     3.507000000     1.121000000     3.463000000
C     1.725000000     0.498000000     4.535000000
C     0.768000000     0.889000000     5.482000000
H     0.017000000     0.244000000     5.932000000
C     1.643000000    -0.906000000     3.889000000
O     2.900000000    -1.528000000     3.628000000
H     1.097000000    -0.804000000     2.939000000
O     0.855000000    -1.736000000     4.738000000
C     0.080000000    -2.593000000     4.053000000
C    -1.202000000    -2.054000000     3.899000000
H    -1.500000000    -1.115000000     4.358000000
C    -2.187000000    -2.708000000     3.112000000
O    -3.415000000    -2.053000000     2.879000000
C    -1.839000000    -3.869000000     2.481000000
C    -2.963000000    -4.460000000     1.632000000
H    -2.879000000    -5.549000000     1.614000000
C    -2.948000000    -3.890000000     0.257000000
C    -2.184000000    -4.561000000    -0.775000000
H    -1.637000000    -5.448000000    -0.465000000
H    -3.950000000    -4.360000000     2.088000000
C    -0.543000000    -4.387000000     2.541000000
H    -0.356000000    -5.247000000     1.902000000
C     0.410000000    -3.729000000     3.324000000
C     1.858000000    -4.226000000     3.350000000
H     1.832000000    -5.313000000     3.245000000
H     2.374000000    -4.031000000     4.292000000
C     2.614000000    -3.495000000     2.225000000
C     2.898000000    -4.126000000     1.015000000
H     2.745000000    -5.194000000     0.877000000
C     3.048000000    -2.194000000     2.433000000
C     3.737000000    -1.479000000     1.463000000
H     4.054000000    -0.455000000     1.642000000
C     3.941000000    -2.044000000     0.206000000
O     4.553000000    -1.239000000    -0.740000000
C     3.698000000    -0.794000000    -1.846000000
C     3.921000000     0.649000000    -2.308000000
C     4.046000000     1.045000000    -3.681000000
H     3.947000000     0.321000000    -4.486000000
C     4.023000000     1.576000000    -1.328000000
H     3.775000000     1.324000000    -0.300000000
O     3.676000000    -1.668000000    -3.016000000
H     2.657000000    -0.853000000    -1.494000000
C     3.491000000    -3.381000000    -0.019000000
C     3.826000000    -4.069000000    -1.300000000
H     3.918000000    -5.141000000    -1.116000000
H     4.821000000    -3.717000000    -1.582000000
C     2.619000000    -3.722000000    -2.262000000
C     1.345000000    -4.374000000    -2.248000000
H     1.122000000    -5.197000000    -1.573000000
C     2.708000000    -2.606000000    -3.124000000
C     1.734000000    -2.292000000    -4.112000000
H     1.940000000    -1.436000000    -4.750000000
C     0.502000000    -2.936000000    -4.085000000
O    -0.500000000    -2.155000000    -4.680000000
C    -1.286000000    -1.360000000    -3.777000000
C    -1.731000000     0.010000000    -4.384000000
C    -0.883000000     0.617000000    -5.340000000
H    -0.023000000     0.037000000    -5.662000000
C    -2.854000000     0.768000000    -3.929000000
H    -3.599000000     0.372000000    -3.243000000
O    -2.464000000    -2.191000000    -3.566000000
H    -0.861000000    -1.260000000    -2.767000000
C     0.341000000    -3.957000000    -3.143000000
C    -1.049000000    -4.699000000    -3.031000000
H    -0.885000000    -5.771000000    -2.903000000
H    -1.458000000    -4.652000000    -4.042000000
C    -2.005000000    -4.039000000    -2.038000000
C    -2.664000000    -2.854000000    -2.351000000
C    -3.375000000    -2.157000000    -1.361000000
H    -3.839000000    -1.217000000    -1.649000000
C    -3.620000000    -2.705000000    -0.103000000
O    -4.100000000    -1.842000000     0.806000000
C    -3.354000000    -1.163000000     1.773000000
H    -2.311000000    -1.159000000     1.424000000
C    -3.993000000     0.182000000     2.153000000
C    -3.989000000     0.616000000     3.502000000
H    -3.686000000     0.047000000     4.378000000
C    -4.579000000     0.978000000     1.138000000
H    -4.595000000     0.572000000     0.130000000
C    -5.008000000     2.289000000     1.432000000
O    -5.474000000     3.158000000     0.447000000
C    -4.891000000     2.743000000     2.733000000
H    -5.087000000     3.796000000     2.919000000
C    -4.428000000     1.888000000     3.749000000
O    -4.409000000     2.440000000     4.980000000
C    -3.558000000     2.114000000     5.988000000
C    -2.244000000     2.521000000     5.966000000
H    -1.847000000     2.929000000     5.040000000
C    -4.056000000     1.663000000     7.182000000
H    -5.130000000     1.501000000     7.225000000
C    -3.221000000     1.570000000     8.346000000
H    -3.763000000     1.164000000     9.196000000
C    -1.859000000     1.827000000     8.234000000
H    -1.260000000     1.636000000     9.121000000
C    -1.414000000     2.319000000     7.029000000
O    -0.062000000     2.621000000     7.017000000
C     0.743000000     2.203000000     5.963000000
C     1.725000000     3.092000000     5.571000000
H     1.760000000     4.083000000     6.017000000
C     2.663000000     2.709000000     4.639000000
O     3.524000000     3.591000000     4.114000000
C     4.407000000     3.385000000     3.075000000
C     3.953000000     3.698000000     1.773000000
H     2.969000000     4.158000000     1.725000000
C     5.655000000     2.764000000     3.242000000
H     5.969000000     2.479000000     4.243000000
C     6.440000000     2.552000000     2.079000000
H     7.404000000     2.072000000     2.228000000
C     6.021000000     2.984000000     0.825000000
H     6.664000000     3.069000000    -0.047000000
C     4.766000000     3.547000000     0.667000000
O     4.369000000     3.825000000    -0.625000000
C     4.321000000     2.923000000    -1.638000000
C     4.480000000     3.352000000    -2.972000000
H     4.864000000     4.345000000    -3.195000000
C     4.309000000     2.379000000    -3.980000000
O     4.514000000     2.782000000    -5.318000000
C     3.448000000     2.582000000    -6.285000000
C     2.072000000     2.812000000    -5.972000000
H     1.787000000     3.024000000    -4.945000000
C     3.802000000     2.474000000    -7.626000000
H     4.834000000     2.626000000    -7.931000000
C     2.807000000     2.193000000    -8.524000000
H     3.141000000     2.016000000    -9.543000000
C     1.502000000     2.108000000    -8.190000000
H     0.811000000     1.737000000    -8.943000000
C     1.121000000     2.501000000    -6.870000000
O    -0.167000000     2.678000000    -6.607000000
C    -1.030000000     1.973000000    -5.777000000
C    -2.218000000     2.551000000    -5.464000000
H    -2.459000000     3.418000000    -6.073000000
C    -3.069000000     2.034000000    -4.439000000
O    -4.247000000     2.798000000    -4.166000000
C    -5.031000000     2.509000000    -3.147000000
C    -6.318000000     2.060000000    -3.433000000
H    -6.545000000     1.733000000    -4.445000000
C    -7.271000000     1.988000000    -2.462000000
H    -8.258000000     1.641000000    -2.759000000
C    -6.996000000     2.333000000    -1.174000000
H    -7.717000000     2.249000000    -0.365000000
C    -5.703000000     2.707000000    -0.858000000
C    -4.691000000     2.782000000    -1.795000000
H    -3.694000000     3.180000000    -1.623000000
O     1.299000000     7.852000000    -1.611000000
H     1.241000000     8.259000000    -0.746000000
H     1.210000000     6.914000000    -1.441000000
O    -6.442000000     6.446000000     2.312000000
H    -5.615000000     6.042000000     2.050000000
H    -6.901000000     5.760000000     2.796000000
O     0.900000000     5.508000000     1.388000000
H     1.262000000     5.415000000     0.507000000
H     0.353000000     4.732000000     1.506000000
O    -7.043000000     5.771000000    -1.170000000
H    -6.217000000     5.585000000    -0.722000000
H    -6.780000000     6.089000000    -2.034000000
O    -1.590000000     5.680000000    -2.729000000
H    -1.922000000     5.202000000    -1.969000000
H    -1.039000000     6.369000000    -2.356000000
O    -3.463000000     6.451000000    -4.410000000
H    -2.851000000     6.033000000    -3.804000000
H    -3.904000000     7.118000000    -3.884000000
O     1.564000000     4.980000000    -1.350000000
H     2.379000000     4.479000000    -1.385000000
H     1.273000000     5.029000000    -2.260000000
O    -1.104000000     5.934000000     4.089000000
H    -2.007000000     6.240000000     4.174000000
H    -1.110000000     5.385000000     3.305000000
O    -5.020000000     7.312000000     5.404000000
H    -5.034000000     6.782000000     4.607000000
H    -4.276000000     7.902000000     5.286000000
O    -3.770000000     6.547000000     2.882000000
H    -3.225000000     5.877000000     2.467000000
H    -4.054000000     7.106000000     2.158000000
O     1.125000000     9.376000000     0.694000000
H     1.163000000    10.243000000     0.291000000
H     0.637000000     9.510000000     1.506000000
O    -1.858000000     9.667000000    -1.981000000
H    -1.104000000    10.256000000    -1.983000000
H    -1.582000000     8.927000000    -1.439000000
O     1.119000000     7.370000000     4.377000000
H     0.329000000     6.831000000     4.331000000
H     1.742000000     6.932000000     3.799000000
O    -3.750000000     8.667000000     0.963000000
H    -2.864000000     8.559000000     0.617000000
H    -4.157000000     9.309000000     0.383000000
O    -4.262000000     6.058000000    -0.526000000
H    -3.693000000     5.328000000    -0.282000000
H    -3.659000000     6.759000000    -0.775000000
O    -1.325000000     7.549000000    -0.024000000
H    -0.728000000     7.498000000     0.722000000
H    -1.723000000     6.680000000    -0.072000000
O     2.919000000     7.497000000     1.788000000
H     2.551000000     8.220000000     1.279000000
H     2.273000000     6.796000000     1.710000000
O    -0.069000000     5.859000000    -5.004000000
H    -0.642000000     5.556000000    -4.299000000
H    -0.660000000     6.283000000    -5.626000000
O     0.088000000     9.717000000     3.351000000
H     0.840000000    10.307000000     3.397000000
H     0.376000000     8.925000000     3.804000000
