201
-1203.51197
C     3.288000000     0.480000000     4.704000000
H     4.120000000    -0.001000000     4.195000000
C     2.014000000    -0.124000000     4.698000000
C     0.943000000     0.452000000     5.322000000
H    -0.029000000     0.043000000     5.058000000
C     1.744000000    -1.307000000     3.807000000
O     2.896000000    -2.027000000     3.471000000
H     1.214000000    -0.920000000     2.924000000
O     0.746000000    -2.207000000     4.408000000
C    -0.211000000    -2.806000000     3.620000000
C    -1.539000000    -2.335000000     3.578000000
H    -1.820000000    -1.508000000     4.225000000
C    -2.466000000    -2.962000000     2.721000000
O    -3.704000000    -2.379000000     2.590000000
C    -2.144000000    -3.993000000     1.895000000
C    -3.137000000    -4.550000000     0.856000000
H    -2.721000000    -5.536000000     0.641000000
C    -3.073000000    -3.750000000    -0.452000000
C    -2.255000000    -4.135000000    -1.491000000
H    -1.621000000    -5.010000000    -1.368000000
H    -4.136000000    -4.660000000     1.282000000
C    -0.913000000    -4.502000000     2.030000000
H    -0.616000000    -5.256000000     1.306000000
C     0.093000000    -3.941000000     2.856000000
C     1.486000000    -4.561000000     2.782000000
H     1.331000000    -5.586000000     2.436000000
H     1.930000000    -4.436000000     3.772000000
C     2.443000000    -3.772000000     1.874000000
C     2.554000000    -4.151000000     0.546000000
H     1.889000000    -4.908000000     0.138000000
C     3.098000000    -2.562000000     2.241000000
C     3.898000000    -1.774000000     1.424000000
H     4.417000000    -0.912000000     1.835000000
C     4.009000000    -2.235000000     0.083000000
O     4.636000000    -1.367000000    -0.742000000
C     3.707000000    -0.619000000    -1.516000000
C     4.022000000     0.870000000    -1.475000000
C     3.658000000     1.604000000    -2.602000000
H     3.291000000     1.030000000    -3.449000000
C     4.610000000     1.460000000    -0.389000000
H     4.894000000     0.877000000     0.484000000
O     3.716000000    -1.166000000    -2.856000000
H     2.705000000    -0.608000000    -1.063000000
C     3.293000000    -3.344000000    -0.353000000
C     3.371000000    -3.937000000    -1.779000000
H     3.327000000    -5.027000000    -1.734000000
H     4.417000000    -3.839000000    -2.075000000
C     2.346000000    -3.276000000    -2.682000000
C     1.059000000    -3.853000000    -2.809000000
H     0.873000000    -4.834000000    -2.379000000
C     2.591000000    -1.970000000    -3.188000000
C     1.533000000    -1.401000000    -3.933000000
H     1.638000000    -0.430000000    -4.410000000
C     0.359000000    -2.105000000    -4.152000000
O    -0.670000000    -1.503000000    -4.802000000
C    -1.625000000    -0.801000000    -3.977000000
C    -1.696000000     0.646000000    -4.412000000
C    -0.799000000     1.267000000    -5.240000000
H     0.098000000     0.730000000    -5.539000000
C    -2.751000000     1.421000000    -3.858000000
H    -3.453000000     1.027000000    -3.127000000
O    -2.959000000    -1.457000000    -3.981000000
H    -1.204000000    -0.868000000    -2.963000000
C     0.046000000    -3.298000000    -3.576000000
C    -1.326000000    -4.013000000    -3.785000000
H    -1.280000000    -5.102000000    -3.714000000
H    -1.802000000    -3.705000000    -4.718000000
C    -2.230000000    -3.554000000    -2.729000000
C    -3.076000000    -2.414000000    -2.925000000
C    -3.902000000    -2.012000000    -1.871000000
H    -4.461000000    -1.080000000    -1.897000000
C    -3.949000000    -2.723000000    -0.686000000
O    -4.637000000    -2.102000000     0.384000000
C    -3.824000000    -1.504000000     1.444000000
H    -2.801000000    -1.336000000     1.077000000
C    -4.481000000    -0.153000000     1.833000000
C    -4.033000000     0.560000000     2.929000000
H    -3.488000000    -0.044000000     3.651000000
C    -5.185000000     0.637000000     0.834000000
H    -5.438000000     0.232000000    -0.142000000
C    -5.545000000     1.959000000     1.028000000
O    -6.495000000     2.561000000     0.144000000
C    -5.086000000     2.574000000     2.136000000
H    -5.396000000     3.583000000     2.397000000
C    -4.373000000     1.900000000     3.078000000
O    -3.776000000     2.653000000     4.085000000
C    -3.253000000     2.107000000     5.253000000
C    -1.945000000     2.424000000     5.565000000
H    -1.270000000     3.049000000     4.986000000
C    -3.968000000     1.221000000     6.052000000
H    -4.981000000     0.917000000     5.802000000
C    -3.325000000     0.579000000     7.091000000
H    -3.899000000    -0.098000000     7.718000000
C    -2.009000000     0.814000000     7.363000000
H    -1.664000000     0.374000000     8.295000000
C    -1.313000000     1.824000000     6.700000000
O     0.055000000     2.088000000     6.900000000
C     1.094000000     1.611000000     6.097000000
C     2.402000000     2.206000000     6.105000000
H     2.571000000     3.048000000     6.771000000
C     3.430000000     1.702000000     5.292000000
O     4.680000000     2.303000000     5.354000000
C     5.465000000     2.433000000     4.281000000
C     4.919000000     2.938000000     3.094000000
H     3.886000000     3.270000000     3.029000000
C     6.793000000     1.988000000     4.323000000
H     7.146000000     1.490000000     5.222000000
C     7.554000000     1.983000000     3.199000000
H     8.588000000     1.663000000     3.298000000
C     7.012000000     2.482000000     1.989000000
H     7.634000000     2.534000000     1.098000000
C     5.719000000     2.916000000     1.949000000
O     5.290000000     3.500000000     0.773000000
C     4.702000000     2.860000000    -0.359000000
C     4.370000000     3.587000000    -1.487000000
H     4.558000000     4.657000000    -1.503000000
C     3.952000000     3.003000000    -2.648000000
O     3.864000000     3.732000000    -3.820000000
C     3.196000000     3.272000000    -4.943000000
C     1.832000000     3.618000000    -5.198000000
H     1.314000000     4.119000000    -4.384000000
C     3.889000000     2.572000000    -5.949000000
H     4.873000000     2.139000000    -5.788000000
C     3.241000000     2.178000000    -7.138000000
H     3.625000000     1.333000000    -7.704000000
C     1.930000000     2.596000000    -7.387000000
H     1.364000000     2.116000000    -8.182000000
C     1.210000000     3.177000000    -6.334000000
O    -0.145000000     3.210000000    -6.532000000
C    -1.014000000     2.579000000    -5.625000000
C    -2.012000000     3.365000000    -5.060000000
H    -2.081000000     4.429000000    -5.273000000
C    -2.909000000     2.755000000    -4.243000000
O    -3.833000000     3.567000000    -3.789000000
C    -5.072000000     3.164000000    -3.217000000
C    -6.152000000     3.012000000    -4.092000000
H    -6.121000000     3.052000000    -5.178000000
C    -7.318000000     2.627000000    -3.521000000
H    -8.202000000     2.365000000    -4.097000000
C    -7.521000000     2.429000000    -2.115000000
H    -8.424000000     2.085000000    -1.619000000
C    -6.415000000     2.616000000    -1.295000000
C    -5.172000000     2.968000000    -1.848000000
H    -4.338000000     3.196000000    -1.190000000
O     0.470000000     9.353000000    -2.209000000
H     0.311000000     8.891000000    -1.386000000
H     0.511000000     8.661000000    -2.868000000
O     1.235000000     6.724000000    -2.896000000
H     2.091000000     6.960000000    -2.538000000
H     0.884000000     6.086000000    -2.275000000
O    -1.945000000     7.345000000    -2.317000000
H    -1.428000000     6.569000000    -2.098000000
H    -1.666000000     8.005000000    -1.683000000
O    -4.296000000     6.091000000    -3.440000000
H    -4.068000000     5.204000000    -3.162000000
H    -3.906000000     6.659000000    -2.775000000
O    -4.222000000     6.584000000     3.782000000
H    -3.781000000     5.752000000     3.608000000
H    -4.031000000     6.768000000     4.702000000
O     3.411000000     8.862000000     0.183000000
H     3.466000000     8.322000000    -0.605000000
H     3.964000000     8.412000000     0.821000000
O     1.390000000     6.499000000     5.115000000
H     0.875000000     6.537000000     5.921000000
H     0.833000000     6.023000000     4.498000000
O    -1.896000000     5.339000000     3.014000000
H    -1.898000000     6.285000000     3.164000000
H    -1.628000000     5.242000000     2.100000000
O     3.795000000     6.120000000     3.119000000
H     2.979000000     5.857000000     2.691000000
H     4.042000000     6.936000000     2.684000000
O    -3.937000000     5.105000000     0.581000000
H    -3.895000000     4.304000000     1.104000000
H    -3.029000000     5.276000000     0.331000000
O    -6.119000000     6.700000000     0.078000000
H    -6.464000000     6.376000000    -0.754000000
H    -5.328000000     6.182000000     0.226000000
O    -2.493000000    10.480000000    -1.850000000
H    -2.105000000    10.876000000    -2.631000000
H    -2.769000000     9.609000000    -2.136000000
O     0.964000000     4.849000000     2.629000000
H     0.264000000     4.997000000     1.993000000
H     1.166000000     3.917000000     2.550000000
O    -1.678000000     5.974000000    -6.983000000
H    -2.624000000     6.109000000    -6.927000000
H    -1.344000000     6.267000000    -6.135000000
O     0.870000000    10.042000000     2.931000000
H     0.391000000     9.252000000     2.680000000
H     0.307000000    10.469000000     3.577000000
O    -0.514000000     8.010000000    -0.020000000
H    -1.030000000     8.253000000     0.749000000
H    -0.478000000     7.054000000     0.008000000
O     2.330000000     8.575000000    -4.764000000
H     2.806000000     9.017000000    -4.061000000
H     1.850000000     7.873000000    -4.324000000
O    -1.978000000     8.609000000     2.458000000
H    -2.319000000     9.490000000     2.307000000
H    -2.757000000     8.072000000     2.602000000
O    -1.008000000     7.421000000    -5.045000000
H    -0.729000000     8.323000000    -5.203000000
H    -1.273000000     7.410000000    -4.125000000
