201
-1224.72277
C     2.443000000     0.862000000     4.029000000
H     3.247000000     0.488000000     3.399000000
C     1.496000000    -0.056000000     4.545000000
C     0.524000000     0.354000000     5.447000000
H    -0.193000000    -0.381000000     5.804000000
C     1.290000000    -1.355000000     3.723000000
O     2.487000000    -2.173000000     3.618000000
H     0.828000000    -1.073000000     2.765000000
O     0.354000000    -2.172000000     4.439000000
C    -0.626000000    -2.827000000     3.625000000
C    -1.851000000    -2.188000000     3.533000000
H    -2.067000000    -1.328000000     4.163000000
C    -2.752000000    -2.550000000     2.522000000
O    -3.877000000    -1.842000000     2.343000000
C    -2.494000000    -3.692000000     1.714000000
C    -3.471000000    -4.237000000     0.660000000
H    -3.153000000    -5.278000000     0.570000000
C    -3.240000000    -3.511000000    -0.682000000
C    -2.407000000    -4.013000000    -1.686000000
H    -1.924000000    -4.960000000    -1.461000000
H    -4.515000000    -4.210000000     0.978000000
C    -1.301000000    -4.382000000     1.890000000
H    -1.068000000    -5.291000000     1.341000000
C    -0.347000000    -3.889000000     2.772000000
C     0.961000000    -4.600000000     2.896000000
H     0.890000000    -5.644000000     2.584000000
H     1.204000000    -4.547000000     3.959000000
C     1.990000000    -3.973000000     2.051000000
C     2.387000000    -4.506000000     0.796000000
H     1.876000000    -5.367000000     0.375000000
C     2.752000000    -2.903000000     2.505000000
C     3.723000000    -2.333000000     1.701000000
H     4.268000000    -1.465000000     2.063000000
C     3.926000000    -2.738000000     0.400000000
O     4.662000000    -1.973000000    -0.379000000
C     3.957000000    -1.070000000    -1.336000000
C     4.606000000     0.342000000    -1.410000000
C     4.019000000     1.313000000    -2.257000000
H     3.186000000     1.107000000    -2.924000000
C     5.599000000     0.818000000    -0.473000000
H     6.023000000     0.131000000     0.255000000
O     3.862000000    -1.581000000    -2.734000000
H     2.933000000    -0.831000000    -1.015000000
C     3.275000000    -3.892000000    -0.091000000
C     3.387000000    -4.276000000    -1.556000000
H     3.247000000    -5.358000000    -1.608000000
H     4.446000000    -4.124000000    -1.778000000
C     2.421000000    -3.590000000    -2.500000000
C     1.155000000    -4.150000000    -2.825000000
H     0.931000000    -5.143000000    -2.443000000
C     2.731000000    -2.306000000    -2.977000000
C     1.888000000    -1.718000000    -3.923000000
H     2.220000000    -0.820000000    -4.438000000
C     0.675000000    -2.213000000    -4.160000000
O    -0.197000000    -1.419000000    -4.859000000
C    -1.233000000    -0.759000000    -4.053000000
C    -1.371000000     0.718000000    -4.573000000
C    -0.471000000     1.297000000    -5.496000000
H     0.366000000     0.685000000    -5.823000000
C    -2.349000000     1.530000000    -4.005000000
H    -2.854000000     1.249000000    -3.084000000
O    -2.520000000    -1.370000000    -4.128000000
H    -0.885000000    -0.700000000    -3.011000000
C     0.262000000    -3.432000000    -3.608000000
C    -1.152000000    -3.857000000    -3.825000000
H    -1.151000000    -4.948000000    -3.804000000
H    -1.482000000    -3.640000000    -4.843000000
C    -2.110000000    -3.269000000    -2.824000000
C    -2.748000000    -2.072000000    -3.038000000
C    -3.555000000    -1.545000000    -2.062000000
H    -4.126000000    -0.663000000    -2.338000000
C    -3.778000000    -2.228000000    -0.863000000
O    -4.619000000    -1.668000000     0.031000000
C    -4.033000000    -0.910000000     1.185000000
H    -3.085000000    -0.631000000     0.703000000
C    -4.637000000     0.393000000     1.465000000
C    -4.380000000     0.989000000     2.716000000
H    -3.892000000     0.360000000     3.456000000
C    -5.289000000     1.107000000     0.543000000
H    -5.509000000     0.512000000    -0.340000000
C    -5.776000000     2.386000000     0.804000000
O    -6.433000000     3.116000000    -0.112000000
C    -5.656000000     2.959000000     2.100000000
H    -5.988000000     3.973000000     2.309000000
C    -4.888000000     2.267000000     3.011000000
O    -4.614000000     2.801000000     4.266000000
C    -3.938000000     2.122000000     5.244000000
C    -2.618000000     2.522000000     5.431000000
H    -2.088000000     3.200000000     4.766000000
C    -4.499000000     1.227000000     6.169000000
H    -5.540000000     0.915000000     6.150000000
C    -3.718000000     0.657000000     7.188000000
H    -4.117000000    -0.059000000     7.903000000
C    -2.404000000     1.094000000     7.350000000
H    -1.790000000     0.729000000     8.170000000
C    -1.836000000     1.950000000     6.410000000
O    -0.475000000     2.234000000     6.646000000
C     0.508000000     1.699000000     5.857000000
C     1.454000000     2.608000000     5.457000000
H     1.328000000     3.643000000     5.765000000
C     2.408000000     2.192000000     4.477000000
O     3.251000000     3.176000000     4.002000000
C     4.606000000     2.969000000     3.651000000
C     4.912000000     2.824000000     2.286000000
H     4.077000000     3.013000000     1.615000000
C     5.556000000     2.825000000     4.646000000
H     5.318000000     2.933000000     5.701000000
C     6.777000000     2.295000000     4.298000000
H     7.530000000     2.286000000     5.082000000
C     7.154000000     2.232000000     2.959000000
H     8.216000000     2.115000000     2.758000000
C     6.217000000     2.490000000     1.962000000
O     6.655000000     2.659000000     0.647000000
C     5.865000000     2.120000000    -0.406000000
C     5.447000000     3.066000000    -1.353000000
H     5.804000000     4.090000000    -1.425000000
C     4.539000000     2.637000000    -2.308000000
O     3.997000000     3.510000000    -3.206000000
C     3.585000000     3.043000000    -4.434000000
C     2.315000000     3.306000000    -4.856000000
H     1.718000000     3.884000000    -4.155000000
C     4.484000000     2.428000000    -5.288000000
H     5.497000000     2.322000000    -4.909000000
C     4.158000000     2.075000000    -6.577000000
H     4.872000000     1.514000000    -7.176000000
C     2.851000000     2.263000000    -6.999000000
H     2.514000000     1.846000000    -7.945000000
C     1.933000000     2.850000000    -6.123000000
O     0.667000000     3.148000000    -6.557000000
C    -0.494000000     2.664000000    -5.899000000
C    -1.575000000     3.432000000    -5.419000000
H    -1.634000000     4.467000000    -5.744000000
C    -2.524000000     2.886000000    -4.460000000
O    -3.474000000     3.604000000    -3.810000000
C    -4.679000000     3.060000000    -3.240000000
C    -5.489000000     2.297000000    -3.986000000
H    -5.224000000     2.053000000    -5.011000000
C    -6.688000000     1.794000000    -3.490000000
H    -7.344000000     1.212000000    -4.132000000
C    -7.009000000     2.039000000    -2.158000000
H    -7.893000000     1.693000000    -1.628000000
C    -6.226000000     2.921000000    -1.458000000
C    -5.006000000     3.307000000    -1.904000000
H    -4.306000000     3.809000000    -1.241000000
O    -0.249000000     8.619000000     3.460000000
H    -0.138000000     7.673000000     3.366000000
H    -1.195000000     8.742000000     3.543000000
O     2.428000000     4.806000000    -1.660000000
H     2.965000000     5.580000000    -1.832000000
H     2.822000000     4.117000000    -2.195000000
O     0.339000000     6.378000000    -2.756000000
H     1.144000000     5.861000000    -2.780000000
H    -0.158000000     6.014000000    -2.023000000
O    -3.051000000     6.351000000    -3.101000000
H    -2.624000000     5.731000000    -2.511000000
H    -3.227000000     7.119000000    -2.557000000
O    -0.086000000     5.925000000     2.647000000
H     0.431000000     5.476000000     1.978000000
H    -0.993000000     5.709000000     2.434000000
O    -3.242000000     5.222000000     3.023000000
H    -3.807000000     4.511000000     3.324000000
H    -2.905000000     4.920000000     2.180000000
O     2.731000000     6.176000000     3.026000000
H     2.748000000     5.386000000     2.485000000
H     1.801000000     6.338000000     3.183000000
O    -4.278000000     6.679000000     0.665000000
H    -3.503000000     6.128000000     0.555000000
H    -4.029000000     7.521000000     0.283000000
O    -6.658000000     6.637000000    -1.220000000
H    -6.008000000     6.689000000    -0.518000000
H    -6.154000000     6.774000000    -2.022000000
O    -0.710000000     8.274000000    -4.249000000
H    -0.373000000     7.552000000    -3.719000000
H    -1.657000000     8.249000000    -4.114000000
O     1.602000000     3.960000000     1.069000000
H     1.862000000     4.443000000     0.284000000
H     1.005000000     3.284000000     0.747000000
O    -2.931000000     8.140000000     3.412000000
H    -3.003000000     8.645000000     2.602000000
H    -2.844000000     7.232000000     3.122000000
O    -3.671000000     8.685000000    -1.110000000
H    -4.511000000     9.080000000    -1.343000000
H    -3.035000000     9.392000000    -1.220000000
O    -6.013000000     7.197000000     2.772000000
H    -5.921000000     7.026000000     3.710000000
H    -5.219000000     6.831000000     2.383000000
O    -3.910000000     7.301000000    -5.825000000
H    -4.113000000     7.137000000    -4.904000000
H    -3.471000000     6.503000000    -6.119000000
O     1.658000000     9.154000000    -0.682000000
H     0.855000000     8.715000000    -0.401000000
H     2.132000000     8.489000000    -1.182000000
O    -0.994000000     7.567000000    -0.164000000
H    -1.797000000     8.049000000    -0.361000000
H    -1.279000000     6.659000000    -0.058000000
O    -3.116000000    10.060000000     1.451000000
H    -3.177000000    10.997000000     1.641000000
H    -3.968000000     9.836000000     1.077000000
O     1.983000000     6.746000000    -5.058000000
H     2.906000000     6.659000000    -4.820000000
H     1.544000000     6.964000000    -4.236000000
