201
-1234.87167
C     3.161000000     0.058000000     4.621000000
H     3.837000000    -0.644000000     4.138000000
C     1.853000000    -0.215000000     4.666000000
C     0.951000000     0.696000000     5.202000000
H    -0.095000000     0.402000000     5.166000000
C     1.276000000    -1.424000000     3.912000000
O     2.208000000    -2.417000000     3.807000000
H     0.891000000    -1.093000000     2.936000000
O     0.172000000    -1.930000000     4.624000000
C    -0.813000000    -2.467000000     3.778000000
C    -1.957000000    -1.727000000     3.671000000
H    -1.974000000    -0.744000000     4.134000000
C    -2.943000000    -2.166000000     2.842000000
O    -3.982000000    -1.256000000     2.699000000
C    -2.869000000    -3.347000000     2.175000000
C    -3.928000000    -3.763000000     1.125000000
H    -4.055000000    -4.838000000     0.986000000
C    -3.727000000    -3.144000000    -0.265000000
C    -3.031000000    -3.863000000    -1.204000000
H    -2.717000000    -4.896000000    -1.081000000
H    -4.900000000    -3.400000000     1.463000000
C    -1.769000000    -4.146000000     2.323000000
H    -1.858000000    -5.129000000     1.868000000
C    -0.714000000    -3.755000000     3.135000000
C     0.513000000    -4.609000000     3.264000000
H     0.186000000    -5.599000000     2.939000000
H     1.046000000    -4.721000000     4.211000000
C     1.452000000    -4.118000000     2.193000000
C     1.736000000    -4.777000000     1.038000000
H     1.171000000    -5.635000000     0.682000000
C     2.296000000    -3.038000000     2.561000000
C     3.230000000    -2.462000000     1.654000000
H     3.748000000    -1.558000000     1.965000000
C     3.226000000    -3.004000000     0.390000000
O     4.051000000    -2.290000000    -0.423000000
C     3.439000000    -1.513000000    -1.485000000
C     4.203000000    -0.162000000    -1.690000000
C     4.158000000     0.508000000    -2.937000000
H     3.656000000     0.150000000    -3.832000000
C     4.750000000     0.515000000    -0.591000000
H     4.758000000     0.015000000     0.374000000
O     3.476000000    -2.307000000    -2.675000000
H     2.413000000    -1.290000000    -1.158000000
C     2.548000000    -4.187000000     0.058000000
C     2.668000000    -4.792000000    -1.347000000
H     2.379000000    -5.840000000    -1.446000000
H     3.733000000    -4.732000000    -1.578000000
C     1.772000000    -4.068000000    -2.388000000
C     0.464000000    -4.507000000    -2.683000000
H     0.054000000    -5.308000000    -2.074000000
C     2.253000000    -2.886000000    -3.013000000
C     1.373000000    -2.171000000    -3.851000000
H     1.608000000    -1.215000000    -4.311000000
C     0.063000000    -2.525000000    -4.072000000
O    -0.740000000    -1.630000000    -4.744000000
C    -1.607000000    -0.714000000    -3.984000000
C    -1.626000000     0.695000000    -4.606000000
C    -0.486000000     1.305000000    -5.117000000
H     0.471000000     0.793000000    -5.174000000
C    -2.798000000     1.516000000    -4.478000000
H    -3.673000000     1.048000000    -4.034000000
O    -2.943000000    -1.353000000    -3.925000000
H    -1.274000000    -0.598000000    -2.942000000
C    -0.422000000    -3.668000000    -3.394000000
C    -1.950000000    -3.956000000    -3.490000000
H    -2.098000000    -5.023000000    -3.311000000
H    -2.330000000    -3.851000000    -4.509000000
C    -2.792000000    -3.259000000    -2.456000000
C    -3.300000000    -1.965000000    -2.761000000
C    -3.918000000    -1.244000000    -1.790000000
H    -4.283000000    -0.251000000    -2.042000000
C    -4.184000000    -1.850000000    -0.561000000
O    -4.779000000    -0.970000000     0.312000000
C    -3.982000000    -0.495000000     1.418000000
H    -2.956000000    -0.469000000     1.021000000
C    -4.291000000     0.895000000     1.802000000
C    -4.042000000     1.450000000     3.066000000
H    -3.681000000     0.804000000     3.863000000
C    -4.651000000     1.785000000     0.766000000
H    -4.847000000     1.418000000    -0.238000000
C    -4.758000000     3.160000000     0.974000000
O    -5.044000000     4.086000000    -0.091000000
C    -4.560000000     3.698000000     2.234000000
H    -4.566000000     4.774000000     2.387000000
C    -4.248000000     2.849000000     3.285000000
O    -3.754000000     3.442000000     4.350000000
C    -2.911000000     2.922000000     5.341000000
C    -1.532000000     3.168000000     5.349000000
H    -1.081000000     3.721000000     4.529000000
C    -3.453000000     2.089000000     6.288000000
H    -4.522000000     1.893000000     6.278000000
C    -2.686000000     1.774000000     7.407000000
H    -3.177000000     1.228000000     8.209000000
C    -1.309000000     2.007000000     7.389000000
H    -0.661000000     1.645000000     8.184000000
C    -0.672000000     2.756000000     6.384000000
O     0.641000000     2.860000000     6.325000000
C     1.422000000     1.856000000     5.794000000
C     2.806000000     2.107000000     5.841000000
H     3.215000000     3.002000000     6.301000000
C     3.626000000     1.217000000     5.208000000
O     4.947000000     1.423000000     5.225000000
C     5.676000000     1.517000000     4.084000000
C     5.227000000     2.116000000     2.879000000
H     4.214000000     2.508000000     2.879000000
C     6.990000000     0.994000000     4.123000000
H     7.349000000     0.576000000     5.060000000
C     7.822000000     1.072000000     3.017000000
H     8.881000000     0.853000000     3.124000000
C     7.291000000     1.453000000     1.817000000
H     7.961000000     1.574000000     0.968000000
C     6.006000000     2.002000000     1.708000000
O     5.507000000     2.440000000     0.519000000
C     5.171000000     1.776000000    -0.635000000
C     5.206000000     2.409000000    -1.886000000
H     5.565000000     3.419000000    -2.063000000
C     4.739000000     1.800000000    -2.994000000
O     4.858000000     2.513000000    -4.174000000
C     4.038000000     2.315000000    -5.276000000
C     2.682000000     2.761000000    -5.283000000
H     2.325000000     3.309000000    -4.415000000
C     4.480000000     1.660000000    -6.368000000
H     5.440000000     1.154000000    -6.308000000
C     3.686000000     1.468000000    -7.520000000
H     4.018000000     1.019000000    -8.452000000
C     2.371000000     1.920000000    -7.496000000
H     1.765000000     1.750000000    -8.383000000
C     1.786000000     2.587000000    -6.404000000
O     0.440000000     3.139000000    -6.479000000
C    -0.570000000     2.607000000    -5.681000000
C    -1.700000000     3.344000000    -5.558000000
H    -1.683000000     4.379000000    -5.888000000
C    -2.834000000     2.817000000    -4.870000000
O    -4.041000000     3.630000000    -4.840000000
C    -4.917000000     3.601000000    -3.796000000
C    -6.260000000     3.536000000    -4.024000000
H    -6.677000000     3.589000000    -5.027000000
C    -7.128000000     3.470000000    -2.957000000
H    -8.181000000     3.320000000    -3.182000000
C    -6.681000000     3.593000000    -1.640000000
H    -7.435000000     3.853000000    -0.901000000
C    -5.400000000     3.738000000    -1.341000000
C    -4.485000000     3.782000000    -2.437000000
H    -3.414000000     3.834000000    -2.262000000
O    -0.038000000     7.256000000     5.431000000
H     0.312000000     6.568000000     4.864000000
H     0.242000000     7.006000000     6.311000000
O     2.515000000     4.201000000    -1.017000000
H     3.254000000     4.436000000    -1.578000000
H     1.973000000     4.989000000    -0.993000000
O     0.974000000     6.657000000    -1.241000000
H     0.973000000     7.612000000    -1.180000000
H     0.189000000     6.385000000    -0.765000000
O    -2.401000000     6.224000000    -2.466000000
H    -2.078000000     5.823000000    -1.659000000
H    -1.964000000     7.075000000    -2.502000000
O     1.178000000     5.266000000     3.607000000
H     1.692000000     4.550000000     3.234000000
H     0.606000000     5.548000000     2.893000000
O    -2.475000000     6.713000000     3.193000000
H    -2.533000000     6.381000000     4.088000000
H    -1.851000000     6.130000000     2.761000000
O    -6.780000000     6.097000000     2.538000000
H    -6.102000000     5.895000000     1.893000000
H    -6.805000000     7.053000000     2.567000000
O    -2.859000000     8.087000000     0.468000000
H    -2.299000000     7.416000000     0.858000000
H    -2.354000000     8.420000000    -0.273000000
O     2.868000000     7.343000000    -3.013000000
H     3.484000000     7.847000000    -2.482000000
H     2.210000000     7.035000000    -2.390000000
O    -5.446000000     6.948000000    -1.188000000
H    -5.099000000     6.582000000    -2.001000000
H    -4.708000000     6.921000000    -0.579000000
O     2.226000000     2.805000000     1.430000000
H     2.273000000     3.102000000     0.521000000
H     1.398000000     2.328000000     1.483000000
O    -2.003000000     9.146000000    -1.866000000
H    -2.923000000     9.356000000    -2.023000000
H    -1.519000000     9.794000000    -2.378000000
O    -4.568000000     8.371000000     3.271000000
H    -3.868000000     7.719000000     3.230000000
H    -4.697000000     8.641000000     2.361000000
O     2.886000000     7.253000000     1.315000000
H     1.950000000     7.349000000     1.491000000
H     3.075000000     7.920000000     0.655000000
O     0.473000000     7.873000000     1.820000000
H    -0.083000000     8.542000000     2.220000000
H    -0.100000000     7.113000000     1.722000000
O     4.365000000     5.025000000     1.618000000
H     3.864000000     4.476000000     1.015000000
H     3.886000000     5.853000000     1.643000000
O    -1.126000000     9.947000000     2.676000000
H    -0.937000000    10.609000000     2.011000000
H    -2.005000000     9.635000000     2.461000000
O     0.826000000     9.359000000    -1.156000000
H     1.548000000     9.895000000    -0.826000000
H     0.085000000     9.584000000    -0.593000000
O     0.508000000     6.471000000    -4.398000000
H     1.372000000     6.853000000    -4.241000000
H     0.521000000     5.644000000    -3.916000000
