201
-1261.55184
C     3.315000000    -3.708000000     0.595000000
H     3.601000000    -3.813000000    -0.448000000
C     2.065000000    -3.960000000     1.200000000
C     1.905000000    -3.810000000     2.581000000
H     0.926000000    -3.874000000     3.049000000
C     0.859000000    -4.222000000     0.293000000
O     1.263000000    -4.761000000    -1.024000000
H     0.491000000    -3.202000000     0.112000000
O    -0.234000000    -4.988000000     0.943000000
C    -1.507000000    -4.437000000     0.792000000
C    -2.041000000    -3.804000000     1.894000000
H    -1.495000000    -3.935000000     2.825000000
C    -3.162000000    -2.978000000     1.715000000
O    -3.599000000    -2.237000000     2.789000000
C    -3.845000000    -2.837000000     0.510000000
C    -5.116000000    -2.076000000     0.246000000
H    -5.690000000    -2.474000000    -0.593000000
C    -4.723000000    -0.634000000    -0.010000000
C    -4.675000000    -0.262000000    -1.348000000
H    -4.717000000    -1.071000000    -2.073000000
H    -5.747000000    -2.142000000     1.135000000
C    -3.257000000    -3.533000000    -0.599000000
H    -3.700000000    -3.404000000    -1.583000000
C    -2.137000000    -4.312000000    -0.454000000
C    -1.582000000    -5.136000000    -1.613000000
H    -2.439000000    -5.410000000    -2.230000000
H    -1.088000000    -6.048000000    -1.270000000
C    -0.665000000    -4.390000000    -2.484000000
C    -1.156000000    -3.607000000    -3.546000000
H    -2.177000000    -3.783000000    -3.872000000
C     0.699000000    -4.246000000    -2.180000000
C     1.477000000    -3.315000000    -2.868000000
H     2.511000000    -3.103000000    -2.606000000
C     0.961000000    -2.470000000    -3.827000000
O     1.813000000    -1.526000000    -4.406000000
C     1.701000000    -0.306000000    -3.893000000
C     3.088000000     0.285000000    -3.472000000
C     3.095000000     1.639000000    -3.133000000
H     2.165000000     2.202000000    -3.148000000
C     4.254000000    -0.480000000    -3.458000000
H     4.223000000    -1.533000000    -3.724000000
O     0.939000000     0.558000000    -4.786000000
H     1.133000000    -0.343000000    -2.951000000
C    -0.390000000    -2.580000000    -4.153000000
C    -1.082000000    -1.685000000    -5.255000000
H    -1.900000000    -2.259000000    -5.697000000
H    -0.378000000    -1.652000000    -6.089000000
C    -1.441000000    -0.310000000    -4.718000000
C    -2.763000000     0.023000000    -4.424000000
H    -3.528000000    -0.701000000    -4.692000000
C    -0.429000000     0.703000000    -4.527000000
C    -0.806000000     1.981000000    -4.074000000
H    -0.016000000     2.704000000    -3.888000000
C    -2.103000000     2.195000000    -3.614000000
O    -2.410000000     3.382000000    -2.877000000
C    -2.317000000     3.262000000    -1.432000000
C    -1.583000000     4.464000000    -0.788000000
C    -0.673000000     5.174000000    -1.525000000
H    -0.699000000     5.018000000    -2.601000000
C    -1.590000000     4.635000000     0.581000000
H    -2.135000000     3.970000000     1.246000000
O    -3.739000000     3.233000000    -0.981000000
H    -1.901000000     2.299000000    -1.102000000
C    -3.075000000     1.202000000    -3.753000000
C    -4.443000000     1.424000000    -3.156000000
H    -5.121000000     0.813000000    -3.755000000
H    -4.690000000     2.483000000    -3.258000000
C    -4.442000000     1.056000000    -1.693000000
C    -4.209000000     1.947000000    -0.652000000
C    -4.223000000     1.537000000     0.685000000
H    -4.016000000     2.205000000     1.517000000
C    -4.589000000     0.301000000     1.046000000
O    -4.509000000    -0.127000000     2.332000000
C    -3.310000000    -0.794000000     2.694000000
H    -2.605000000    -0.727000000     1.853000000
C    -2.788000000    -0.252000000     3.985000000
C    -2.161000000    -1.056000000     4.932000000
H    -1.916000000    -2.092000000     4.713000000
C    -2.882000000     1.129000000     4.282000000
H    -3.386000000     1.849000000     3.642000000
C    -2.434000000     1.618000000     5.477000000
O    -2.640000000     2.972000000     5.835000000
C    -1.794000000     0.788000000     6.387000000
H    -1.313000000     1.219000000     7.261000000
C    -1.682000000    -0.561000000     6.084000000
O    -0.914000000    -1.246000000     6.965000000
C    -0.170000000    -2.354000000     6.552000000
C     1.055000000    -2.239000000     5.832000000
H     1.357000000    -1.269000000     5.447000000
C    -0.672000000    -3.600000000     6.880000000
H    -1.589000000    -3.782000000     7.433000000
C    -0.030000000    -4.735000000     6.319000000
H    -0.440000000    -5.739000000     6.396000000
C     1.141000000    -4.621000000     5.575000000
H     1.580000000    -5.505000000     5.118000000
C     1.660000000    -3.364000000     5.393000000
O     2.879000000    -3.218000000     4.697000000
C     2.957000000    -3.429000000     3.306000000
C     4.226000000    -3.147000000     2.728000000
H     5.066000000    -2.836000000     3.343000000
C     4.395000000    -3.427000000     1.349000000
O     5.657000000    -3.222000000     0.903000000
C     6.085000000    -3.117000000    -0.344000000
C     6.118000000    -1.899000000    -0.950000000
H     5.773000000    -1.110000000    -0.286000000
C     6.442000000    -4.296000000    -1.008000000
H     6.329000000    -5.262000000    -0.523000000
C     6.988000000    -4.190000000    -2.306000000
H     7.261000000    -5.091000000    -2.849000000
C     7.162000000    -2.932000000    -2.841000000
H     7.461000000    -2.979000000    -3.885000000
C     6.711000000    -1.744000000    -2.217000000
O     6.593000000    -0.583000000    -2.944000000
C     5.412000000     0.171000000    -2.991000000
C     5.453000000     1.501000000    -2.623000000
H     6.412000000     1.793000000    -2.202000000
C     4.270000000     2.200000000    -2.604000000
O     4.388000000     3.457000000    -2.289000000
C     3.683000000     4.549000000    -2.758000000
C     2.496000000     4.962000000    -2.162000000
H     2.146000000     4.453000000    -1.267000000
C     4.223000000     5.297000000    -3.769000000
H     5.173000000     5.015000000    -4.216000000
C     3.500000000     6.426000000    -4.282000000
H     3.905000000     6.974000000    -5.129000000
C     2.426000000     6.883000000    -3.548000000
H     1.976000000     7.821000000    -3.862000000
C     1.926000000     6.164000000    -2.494000000
O     1.009000000     6.935000000    -1.698000000
C     0.103000000     6.236000000    -0.937000000
C     0.011000000     6.469000000     0.390000000
H     0.637000000     7.231000000     0.848000000
C    -0.839000000     5.671000000     1.189000000
O    -0.923000000     5.908000000     2.577000000
C    -1.994000000     5.486000000     3.319000000
C    -3.235000000     6.098000000     3.215000000
H    -3.416000000     6.851000000     2.453000000
C    -4.245000000     5.668000000     4.048000000
H    -5.199000000     6.189000000     4.049000000
C    -4.039000000     4.579000000     4.910000000
H    -4.859000000     4.206000000     5.519000000
C    -2.782000000     3.967000000     4.939000000
C    -1.688000000     4.471000000     4.221000000
H    -0.697000000     4.031000000     4.132000000
O     3.451000000     5.146000000     0.858000000
H     3.118000000     4.764000000     1.671000000
H     4.170000000     4.570000000     0.600000000
O     4.956000000     3.518000000     5.948000000
H     4.839000000     2.785000000     6.553000000
H     5.316000000     3.120000000     5.156000000
O     1.569000000     2.232000000     7.037000000
H     1.298000000     3.150000000     7.054000000
H     1.646000000     2.022000000     6.107000000
O     3.975000000    -1.214000000     6.693000000
H     4.214000000    -0.440000000     7.202000000
H     4.167000000    -0.974000000     5.786000000
O     3.637000000     5.614000000     4.789000000
H     3.258000000     5.005000000     4.156000000
H     4.100000000     5.055000000     5.413000000
O     7.272000000     1.368000000     3.571000000
H     6.567000000     1.949000000     3.284000000
H     8.060000000     1.909000000     3.526000000
O     5.586000000     1.342000000     7.784000000
H     6.064000000     0.780000000     7.174000000
H     5.795000000     0.989000000     8.649000000
O    -1.166000000     6.043000000     7.690000000
H    -1.471000000     6.643000000     7.009000000
H    -0.441000000     5.567000000     7.283000000
O     7.103000000     1.287000000     0.470000000
H     7.315000000     1.401000000     1.396000000
H     7.644000000     0.549000000     0.189000000
O     1.241000000     5.408000000     6.432000000
H     1.931000000     5.042000000     5.878000000
H     1.709000000     5.923000000     7.089000000
O     3.866000000     3.545000000     8.999000000
H     3.914000000     3.049000000     8.182000000
H     4.756000000     3.870000000     9.135000000
O     0.424000000     7.940000000     6.007000000
H     0.619000000     7.034000000     5.767000000
H     1.278000000     8.324000000     6.206000000
O     6.102000000     5.770000000     2.570000000
H     5.223000000     5.965000000     2.244000000
H     6.293000000     6.479000000     3.184000000
O     4.127000000     0.342000000     4.087000000
H     3.655000000     1.104000000     4.423000000
H     4.022000000     0.396000000     3.137000000
O     3.280000000     8.046000000     3.306000000
H     2.808000000     7.504000000     3.937000000
H     3.909000000     8.537000000     3.835000000
O     4.194000000     0.778000000     1.278000000
H     3.388000000     1.103000000     0.875000000
H     4.868000000     1.399000000     0.999000000
O     3.156000000     7.709000000     0.467000000
H     3.277000000     6.762000000     0.405000000
H     3.212000000     7.898000000     1.403000000
O     7.288000000    -0.138000000     6.151000000
H     7.403000000    -1.062000000     5.930000000
H     6.863000000     0.242000000     5.382000000
O     5.227000000     3.214000000     3.023000000
H     4.291000000     3.410000000     2.979000000
H     5.650000000     4.072000000     3.049000000
