201
-1252.11674
C     3.626000000    -3.424000000     0.613000000
H     3.705000000    -3.362000000    -0.470000000
C     2.434000000    -3.829000000     1.278000000
C     2.388000000    -3.780000000     2.683000000
H     1.525000000    -4.125000000     3.247000000
C     1.155000000    -4.035000000     0.506000000
O     1.382000000    -4.666000000    -0.734000000
H     0.687000000    -3.053000000     0.344000000
O     0.261000000    -4.853000000     1.272000000
C    -1.097000000    -4.451000000     1.348000000
C    -1.499000000    -3.726000000     2.463000000
H    -0.814000000    -3.558000000     3.290000000
C    -2.737000000    -3.066000000     2.506000000
O    -2.949000000    -2.172000000     3.556000000
C    -3.541000000    -3.194000000     1.376000000
C    -4.800000000    -2.331000000     1.400000000
H    -5.516000000    -2.872000000     0.778000000
C    -4.584000000    -0.947000000     0.907000000
C    -4.844000000    -0.605000000    -0.434000000
H    -5.198000000    -1.317000000    -1.175000000
H    -5.183000000    -2.459000000     2.414000000
C    -3.252000000    -4.079000000     0.259000000
H    -3.994000000    -4.165000000    -0.530000000
C    -1.985000000    -4.634000000     0.280000000
C    -1.557000000    -5.271000000    -1.014000000
H    -2.408000000    -5.666000000    -1.573000000
H    -0.855000000    -6.086000000    -0.827000000
C    -0.714000000    -4.391000000    -2.003000000
C    -1.355000000    -3.700000000    -2.989000000
H    -2.430000000    -3.838000000    -3.067000000
C     0.657000000    -4.196000000    -1.828000000
C     1.360000000    -3.377000000    -2.672000000
H     2.415000000    -3.163000000    -2.520000000
C     0.749000000    -2.680000000    -3.701000000
O     1.509000000    -1.761000000    -4.322000000
C     1.284000000    -0.328000000    -3.997000000
C     2.541000000     0.414000000    -3.976000000
C     2.517000000     1.782000000    -4.129000000
H     1.555000000     2.261000000    -4.293000000
C     3.799000000    -0.258000000    -3.745000000
H     3.841000000    -1.309000000    -3.471000000
O     0.314000000     0.337000000    -4.807000000
H     1.028000000    -0.420000000    -2.931000000
C    -0.633000000    -2.787000000    -3.899000000
C    -1.334000000    -1.961000000    -4.908000000
H    -2.172000000    -2.552000000    -5.281000000
H    -0.803000000    -1.769000000    -5.843000000
C    -1.873000000    -0.657000000    -4.469000000
C    -3.058000000    -0.527000000    -3.725000000
H    -3.633000000    -1.412000000    -3.467000000
C    -1.009000000     0.472000000    -4.485000000
C    -1.439000000     1.690000000    -3.925000000
H    -0.891000000     2.628000000    -3.978000000
C    -2.656000000     1.841000000    -3.308000000
O    -2.982000000     3.052000000    -2.713000000
C    -2.776000000     3.148000000    -1.319000000
C    -1.955000000     4.463000000    -1.015000000
C    -1.286000000     5.129000000    -2.016000000
H    -1.365000000     4.797000000    -3.048000000
C    -2.031000000     5.007000000     0.292000000
H    -2.599000000     4.509000000     1.073000000
O    -3.969000000     3.023000000    -0.498000000
H    -2.039000000     2.384000000    -1.030000000
C    -3.430000000     0.717000000    -3.180000000
C    -4.841000000     0.844000000    -2.457000000
H    -5.551000000     0.095000000    -2.815000000
H    -5.307000000     1.815000000    -2.634000000
C    -4.723000000     0.714000000    -0.907000000
C    -4.264000000     1.770000000    -0.068000000
C    -4.137000000     1.443000000     1.292000000
H    -3.851000000     2.239000000     1.974000000
C    -4.212000000     0.117000000     1.768000000
O    -3.883000000    -0.043000000     3.068000000
C    -2.685000000    -0.801000000     3.255000000
H    -2.039000000    -0.790000000     2.365000000
C    -1.871000000    -0.227000000     4.373000000
C    -1.142000000    -1.018000000     5.265000000
H    -1.184000000    -2.105000000     5.274000000
C    -1.707000000     1.122000000     4.312000000
H    -2.235000000     1.659000000     3.529000000
C    -0.987000000     1.764000000     5.301000000
O    -0.836000000     3.113000000     5.472000000
C    -0.271000000     1.059000000     6.268000000
H     0.279000000     1.555000000     7.063000000
C    -0.341000000    -0.345000000     6.235000000
O     0.320000000    -1.040000000     7.245000000
C     0.955000000    -2.212000000     6.941000000
C     2.035000000    -2.209000000     6.066000000
H     2.495000000    -1.248000000     5.852000000
C     0.416000000    -3.387000000     7.379000000
H    -0.408000000    -3.368000000     8.089000000
C     0.958000000    -4.675000000     7.091000000
H     0.589000000    -5.565000000     7.595000000
C     2.104000000    -4.694000000     6.254000000
H     2.617000000    -5.621000000     6.014000000
C     2.582000000    -3.460000000     5.721000000
O     3.623000000    -3.434000000     4.835000000
C     3.559000000    -3.440000000     3.432000000
C     4.739000000    -3.198000000     2.731000000
H     5.665000000    -2.843000000     3.176000000
C     4.740000000    -3.145000000     1.333000000
O     5.745000000    -2.444000000     0.768000000
C     6.003000000    -2.373000000    -0.581000000
C     5.979000000    -1.168000000    -1.297000000
H     5.972000000    -0.191000000    -0.820000000
C     6.301000000    -3.554000000    -1.311000000
H     6.399000000    -4.451000000    -0.706000000
C     6.438000000    -3.575000000    -2.700000000
H     6.526000000    -4.480000000    -3.296000000
C     6.331000000    -2.343000000    -3.361000000
H     6.273000000    -2.272000000    -4.445000000
C     6.128000000    -1.168000000    -2.705000000
O     6.141000000    -0.034000000    -3.442000000
C     4.973000000     0.490000000    -3.866000000
C     4.885000000     1.877000000    -4.079000000
H     5.731000000     2.558000000    -4.125000000
C     3.653000000     2.534000000    -4.234000000
O     3.705000000     3.902000000    -4.468000000
C     2.536000000     4.609000000    -4.601000000
C     1.976000000     5.235000000    -3.503000000
H     2.333000000     4.982000000    -2.508000000
C     2.141000000     4.892000000    -5.871000000
H     2.650000000     4.479000000    -6.738000000
C     1.082000000     5.761000000    -6.113000000
H     0.777000000     6.033000000    -7.120000000
C     0.506000000     6.431000000    -5.042000000
H    -0.206000000     7.231000000    -5.226000000
C     0.896000000     6.157000000    -3.725000000
O     0.214000000     6.892000000    -2.704000000
C    -0.440000000     6.199000000    -1.712000000
C    -0.439000000     6.703000000    -0.395000000
H     0.204000000     7.542000000    -0.143000000
C    -1.266000000     6.082000000     0.625000000
O    -1.166000000     6.475000000     1.982000000
C    -1.739000000     5.680000000     3.037000000
C    -3.090000000     5.850000000     3.339000000
H    -3.764000000     6.532000000     2.827000000
C    -3.627000000     5.147000000     4.347000000
H    -4.698000000     5.202000000     4.520000000
C    -2.920000000     4.235000000     5.151000000
H    -3.347000000     3.702000000     5.997000000
C    -1.531000000     4.048000000     4.801000000
C    -0.948000000     4.759000000     3.768000000
H     0.065000000     4.517000000     3.456000000
O     2.084000000     5.989000000     1.940000000
H     1.132000000     5.959000000     2.031000000
H     2.343000000     5.074000000     1.827000000
O     3.848000000     5.730000000     4.037000000
H     3.722000000     4.806000000     3.820000000
H     3.617000000     6.198000000     3.235000000
O     2.130000000     3.618000000     5.768000000
H     2.266000000     3.222000000     4.907000000
H     1.329000000     4.134000000     5.670000000
O     3.033000000     8.383000000     2.547000000
H     2.634000000     7.752000000     1.947000000
H     2.384000000     8.496000000     3.242000000
O     4.453000000    -0.051000000     2.209000000
H     5.173000000     0.391000000     1.760000000
H     4.562000000    -0.975000000     1.985000000
O     4.512000000     3.742000000    -0.586000000
H     3.839000000     3.740000000     0.094000000
H     4.756000000     2.822000000    -0.684000000
O     5.678000000     5.757000000     1.446000000
H     5.606000000     5.219000000     2.235000000
H     5.371000000     5.188000000     0.740000000
O     5.557000000     8.437000000     3.872000000
H     5.120000000     7.974000000     3.157000000
H     4.952000000     9.140000000     4.108000000
O     5.380000000     3.375000000     2.705000000
H     4.486000000     3.379000000     2.361000000
H     5.352000000     2.758000000     3.437000000
O     1.963000000     3.665000000     8.673000000
H     2.810000000     3.469000000     9.073000000
H     2.133000000     3.644000000     7.731000000
O     5.514000000     6.640000000     6.336000000
H     4.826000000     6.441000000     6.972000000
H     5.072000000     6.612000000     5.488000000
O     6.926000000     0.272000000     5.141000000
H     6.160000000     0.844000000     5.102000000
H     7.586000000     0.719000000     4.611000000
O     1.494000000     6.338000000     5.590000000
H     1.474000000     7.164000000     5.107000000
H     2.180000000     5.826000000     5.163000000
O     5.494000000     7.960000000    -0.799000000
H     5.689000000     7.992000000     0.138000000
H     5.496000000     7.026000000    -1.012000000
O     5.770000000     5.398000000    -2.492000000
H     5.291000000     4.745000000    -1.981000000
H     6.008000000     4.942000000    -3.299000000
O     4.175000000     1.457000000     4.392000000
H     4.219000000     0.696000000     3.812000000
H     3.434000000     1.966000000     4.063000000
O     6.551000000     1.622000000     0.952000000
H     7.356000000     1.878000000     0.502000000
H     6.451000000     2.269000000     1.650000000
O     4.320000000     0.919000000     7.096000000
H     4.733000000     0.119000000     6.770000000
H     4.155000000     1.440000000     6.311000000
O     8.386000000     5.647000000     1.132000000
H     8.702000000     5.755000000     2.029000000
H     7.453000000     5.855000000     1.181000000
