201
-1267.48068
C     2.373000000    -0.675000000     4.643000000
H     2.774000000    -1.543000000     4.127000000
C     1.001000000    -0.533000000     4.681000000
C     0.476000000     0.518000000     5.464000000
H    -0.592000000     0.583000000     5.653000000
C     0.089000000    -1.502000000     3.942000000
O     0.645000000    -2.896000000     4.035000000
H     0.009000000    -1.123000000     2.913000000
O    -1.193000000    -1.599000000     4.458000000
C    -2.255000000    -1.712000000     3.599000000
C    -2.924000000    -0.523000000     3.392000000
H    -2.655000000     0.358000000     3.968000000
C    -3.869000000    -0.410000000     2.419000000
O    -4.347000000     0.851000000     2.100000000
C    -4.223000000    -1.593000000     1.729000000
C    -5.315000000    -1.528000000     0.640000000
H    -5.770000000    -2.488000000     0.387000000
C    -4.689000000    -1.061000000    -0.679000000
C    -4.201000000    -2.041000000    -1.581000000
H    -4.225000000    -3.097000000    -1.327000000
H    -6.146000000    -0.880000000     0.924000000
C    -3.580000000    -2.829000000     1.952000000
H    -3.853000000    -3.674000000     1.325000000
C    -2.581000000    -2.920000000     2.958000000
C    -1.807000000    -4.212000000     3.251000000
H    -2.429000000    -5.072000000     2.994000000
H    -1.580000000    -4.265000000     4.318000000
C    -0.597000000    -4.233000000     2.410000000
C    -0.647000000    -4.813000000     1.131000000
H    -1.568000000    -5.311000000     0.838000000
C     0.564000000    -3.507000000     2.812000000
C     1.562000000    -3.392000000     1.931000000
H     2.451000000    -2.845000000     2.233000000
C     1.562000000    -4.019000000     0.676000000
O     2.609000000    -3.778000000    -0.234000000
C     2.568000000    -2.719000000    -1.208000000
C     3.803000000    -1.893000000    -1.181000000
C     4.274000000    -1.248000000    -2.352000000
H     3.732000000    -1.310000000    -3.292000000
C     4.508000000    -1.751000000     0.005000000
H     4.195000000    -2.283000000     0.900000000
O     2.279000000    -3.462000000    -2.432000000
H     1.747000000    -2.019000000    -0.994000000
C     0.416000000    -4.738000000     0.303000000
C     0.300000000    -5.288000000    -1.117000000
H    -0.333000000    -6.177000000    -1.098000000
H     1.297000000    -5.705000000    -1.278000000
C     0.024000000    -4.185000000    -2.177000000
C    -1.286000000    -3.999000000    -2.577000000
H    -2.045000000    -4.618000000    -2.107000000
C     0.985000000    -3.383000000    -2.756000000
C     0.697000000    -2.516000000    -3.785000000
H     1.528000000    -1.962000000    -4.214000000
C    -0.635000000    -2.334000000    -4.219000000
O    -1.010000000    -1.206000000    -4.891000000
C    -1.343000000    -0.052000000    -4.141000000
C    -0.654000000     1.164000000    -4.687000000
C     0.673000000     1.069000000    -5.185000000
H     1.041000000     0.053000000    -5.298000000
C    -1.193000000     2.407000000    -4.401000000
H    -2.211000000     2.442000000    -4.021000000
O    -2.791000000     0.177000000    -4.107000000
H    -0.983000000    -0.263000000    -3.123000000
C    -1.618000000    -3.115000000    -3.576000000
C    -3.106000000    -2.806000000    -3.759000000
H    -3.649000000    -3.744000000    -3.624000000
H    -3.332000000    -2.507000000    -4.785000000
C    -3.617000000    -1.701000000    -2.774000000
C    -3.546000000    -0.347000000    -3.093000000
C    -3.986000000     0.585000000    -2.217000000
H    -3.937000000     1.650000000    -2.432000000
C    -4.570000000     0.276000000    -1.024000000
O    -4.759000000     1.287000000    -0.067000000
C    -3.808000000     1.441000000     0.949000000
H    -2.859000000     0.922000000     0.748000000
C    -3.436000000     2.907000000     1.216000000
C    -2.958000000     3.221000000     2.519000000
H    -2.831000000     2.445000000     3.269000000
C    -3.518000000     3.788000000     0.162000000
H    -3.983000000     3.492000000    -0.775000000
C    -3.060000000     5.098000000     0.389000000
O    -3.210000000     6.046000000    -0.611000000
C    -2.688000000     5.501000000     1.646000000
H    -2.179000000     6.432000000     1.885000000
C    -2.592000000     4.536000000     2.681000000
O    -2.088000000     4.916000000     3.851000000
C    -1.887000000     4.105000000     4.894000000
C    -0.579000000     3.713000000     5.274000000
H     0.265000000     3.997000000     4.650000000
C    -2.976000000     3.830000000     5.680000000
H    -3.968000000     4.148000000     5.370000000
C    -2.830000000     3.090000000     6.861000000
H    -3.674000000     2.777000000     7.470000000
C    -1.542000000     2.716000000     7.253000000
H    -1.366000000     2.024000000     8.073000000
C    -0.463000000     3.010000000     6.475000000
O     0.785000000     2.504000000     6.735000000
C     1.282000000     1.398000000     6.080000000
C     2.667000000     1.264000000     6.021000000
H     3.338000000     1.931000000     6.556000000
C     3.205000000     0.188000000     5.315000000
O     4.585000000    -0.070000000     5.322000000
C     5.137000000    -1.045000000     4.515000000
C     5.562000000    -0.622000000     3.282000000
H     5.201000000     0.324000000     2.887000000
C     5.533000000    -2.269000000     4.967000000
H     5.306000000    -2.561000000     5.989000000
C     6.155000000    -3.197000000     4.091000000
H     6.429000000    -4.197000000     4.420000000
C     6.535000000    -2.765000000     2.784000000
H     7.166000000    -3.356000000     2.125000000
C     6.232000000    -1.411000000     2.366000000
O     6.572000000    -0.865000000     1.111000000
C     5.746000000    -1.023000000     0.004000000
C     6.216000000    -0.430000000    -1.174000000
H     7.136000000     0.149000000    -1.145000000
C     5.443000000    -0.438000000    -2.335000000
O     6.045000000     0.057000000    -3.511000000
C     5.315000000     0.106000000    -4.656000000
C     4.228000000     0.937000000    -4.765000000
H     3.916000000     1.612000000    -3.972000000
C     5.722000000    -0.631000000    -5.781000000
H     6.510000000    -1.369000000    -5.653000000
C     5.102000000    -0.433000000    -6.997000000
H     5.507000000    -0.835000000    -7.922000000
C     3.964000000     0.393000000    -7.106000000
H     3.503000000     0.509000000    -8.084000000
C     3.553000000     1.098000000    -5.989000000
O     2.548000000     2.090000000    -6.245000000
C     1.358000000     2.201000000    -5.636000000
C     0.785000000     3.397000000    -5.507000000
H     1.340000000     4.239000000    -5.914000000
C    -0.484000000     3.563000000    -4.816000000
O    -0.902000000     4.845000000    -4.560000000
C    -2.056000000     5.046000000    -3.897000000
C    -3.209000000     5.248000000    -4.682000000
H    -3.100000000     5.106000000    -5.754000000
C    -4.404000000     5.523000000    -4.036000000
H    -5.371000000     5.486000000    -4.531000000
C    -4.444000000     5.753000000    -2.667000000
H    -5.398000000     5.854000000    -2.156000000
C    -3.273000000     5.702000000    -1.938000000
C    -2.076000000     5.403000000    -2.526000000
H    -1.184000000     5.378000000    -1.906000000
O     0.979000000     5.630000000     2.225000000
H     0.931000000     5.714000000     1.273000000
H     0.340000000     6.262000000     2.554000000
O     6.623000000     2.470000000     3.601000000
H     5.882000000     2.342000000     3.009000000
H     6.292000000     3.064000000     4.275000000
O     8.018000000     3.507000000    -0.261000000
H     8.459000000     2.908000000     0.341000000
H     8.692000000     4.141000000    -0.505000000
O     2.692000000     4.505000000     3.946000000
H     1.956000000     4.607000000     3.343000000
H     3.341000000     4.006000000     3.451000000
O     4.961000000     6.233000000    -0.847000000
H     4.336000000     5.608000000    -1.216000000
H     4.936000000     6.069000000     0.095000000
O     5.625000000     5.298000000    -6.229000000
H     6.174000000     4.625000000    -5.826000000
H     4.846000000     5.336000000    -5.674000000
O     7.404000000     3.842000000    -4.556000000
H     6.750000000     3.745000000    -3.865000000
H     8.227000000     3.575000000    -4.147000000
O     7.181000000     7.045000000    -2.043000000
H     6.520000000     6.646000000    -1.478000000
H     7.982000000     7.035000000    -1.519000000
O     4.548000000     6.527000000     1.789000000
H     3.658000000     6.500000000     2.140000000
H     5.064000000     6.947000000     2.477000000
O     4.634000000     3.620000000     1.898000000
H     4.396000000     3.505000000     0.978000000
H     5.226000000     4.372000000     1.900000000
O     3.603000000     8.649000000    -2.701000000
H     4.324000000     8.219000000    -3.161000000
H     2.823000000     8.414000000    -3.203000000
O     6.022000000     3.427000000    -2.250000000
H     5.370000000     3.339000000    -1.555000000
H     6.862000000     3.320000000    -1.805000000
O     1.900000000     6.651000000    -0.291000000
H     2.735000000     7.088000000    -0.119000000
H     2.108000000     5.988000000    -0.949000000
O     5.373000000     7.732000000    -4.367000000
H     6.019000000     7.695000000    -5.071000000
H     5.742000000     7.184000000    -3.674000000
O     1.185000000     6.767000000    -3.320000000
H     1.588000000     6.217000000    -2.649000000
H     0.371000000     6.316000000    -3.542000000
O     4.188000000     4.383000000    -4.102000000
H     4.843000000     4.000000000    -3.517000000
H     3.387000000     4.410000000    -3.578000000
O     0.483000000     9.463000000     0.096000000
H    -0.439000000     9.416000000    -0.159000000
H     0.817000000     8.578000000    -0.051000000
O     2.510000000     8.170000000    -5.527000000
H     3.348000000     8.381000000    -5.116000000
H     2.180000000     7.423000000    -5.028000000
O     6.994000000     5.313000000     1.445000000
H     7.278000000     4.710000000     0.759000000
H     7.051000000     6.179000000     1.041000000
