201
-1249.93237
C     3.244000000    -1.063000000     4.537000000
H     3.753000000    -1.957000000     4.186000000
C     1.850000000    -1.020000000     4.443000000
C     1.221000000     0.120000000     4.947000000
H     0.180000000     0.314000000     4.703000000
C     1.028000000    -2.035000000     3.607000000
O     1.689000000    -3.351000000     3.417000000
H     0.901000000    -1.654000000     2.583000000
O    -0.246000000    -2.114000000     4.256000000
C    -1.356000000    -2.305000000     3.499000000
C    -2.236000000    -1.265000000     3.441000000
H    -1.976000000    -0.303000000     3.876000000
C    -3.300000000    -1.323000000     2.547000000
O    -4.009000000    -0.177000000     2.372000000
C    -3.507000000    -2.473000000     1.806000000
C    -4.637000000    -2.508000000     0.789000000
H    -4.855000000    -3.531000000     0.478000000
C    -4.429000000    -1.827000000    -0.585000000
C    -3.953000000    -2.581000000    -1.689000000
H    -3.844000000    -3.641000000    -1.474000000
H    -5.606000000    -2.195000000     1.183000000
C    -2.765000000    -3.614000000     2.030000000
H    -2.999000000    -4.530000000     1.494000000
C    -1.622000000    -3.548000000     2.839000000
C    -0.677000000    -4.796000000     2.877000000
H    -1.267000000    -5.655000000     2.551000000
H    -0.203000000    -5.102000000     3.812000000
C     0.397000000    -4.664000000     1.854000000
C     0.221000000    -5.115000000     0.534000000
H    -0.712000000    -5.563000000     0.201000000
C     1.610000000    -3.990000000     2.206000000
C     2.617000000    -3.905000000     1.294000000
H     3.537000000    -3.363000000     1.500000000
C     2.416000000    -4.287000000    -0.078000000
O     3.420000000    -3.919000000    -0.946000000
C     3.016000000    -2.767000000    -1.699000000
C     4.165000000    -1.717000000    -1.710000000
C     4.311000000    -0.875000000    -2.873000000
H     3.826000000    -1.082000000    -3.824000000
C     4.815000000    -1.404000000    -0.548000000
H     4.659000000    -1.904000000     0.405000000
O     2.634000000    -3.099000000    -3.044000000
H     2.085000000    -2.381000000    -1.258000000
C     1.182000000    -4.958000000    -0.456000000
C     0.880000000    -5.350000000    -1.867000000
H     0.187000000    -6.193000000    -1.829000000
H     1.810000000    -5.782000000    -2.244000000
C     0.429000000    -4.140000000    -2.785000000
C    -0.922000000    -4.004000000    -3.064000000
H    -1.688000000    -4.656000000    -2.651000000
C     1.274000000    -3.156000000    -3.335000000
C     0.795000000    -2.050000000    -4.072000000
H     1.471000000    -1.292000000    -4.460000000
C    -0.581000000    -1.934000000    -4.277000000
O    -1.035000000    -0.715000000    -4.812000000
C    -1.813000000     0.287000000    -3.968000000
C    -1.464000000     1.685000000    -4.190000000
C    -0.132000000     1.970000000    -4.491000000
H     0.633000000     1.199000000    -4.435000000
C    -2.403000000     2.703000000    -4.163000000
H    -3.466000000     2.624000000    -3.952000000
O    -3.231000000     0.183000000    -3.994000000
H    -1.590000000     0.060000000    -2.915000000
C    -1.468000000    -2.880000000    -3.708000000
C    -2.929000000    -2.841000000    -3.966000000
H    -3.214000000    -3.869000000    -3.734000000
H    -3.219000000    -2.334000000    -4.888000000
C    -3.629000000    -2.004000000    -2.925000000
C    -3.786000000    -0.591000000    -2.994000000
C    -4.276000000     0.143000000    -1.900000000
H    -4.304000000     1.218000000    -2.057000000
C    -4.640000000    -0.459000000    -0.741000000
O    -4.946000000     0.411000000     0.337000000
C    -3.861000000     0.685000000     1.247000000
H    -2.884000000     0.484000000     0.784000000
C    -3.857000000     2.116000000     1.759000000
C    -3.485000000     2.347000000     3.085000000
H    -3.105000000     1.595000000     3.773000000
C    -4.099000000     3.132000000     0.831000000
H    -4.504000000     2.939000000    -0.159000000
C    -4.016000000     4.439000000     1.231000000
O    -4.070000000     5.455000000     0.276000000
C    -3.583000000     4.757000000     2.556000000
H    -3.333000000     5.791000000     2.780000000
C    -3.353000000     3.720000000     3.479000000
O    -2.937000000     4.115000000     4.711000000
C    -2.204000000     3.266000000     5.529000000
C    -0.839000000     3.092000000     5.211000000
H    -0.438000000     3.473000000     4.275000000
C    -2.773000000     2.753000000     6.694000000
H    -3.844000000     2.872000000     6.836000000
C    -1.937000000     2.133000000     7.608000000
H    -2.385000000     1.775000000     8.531000000
C    -0.564000000     1.956000000     7.384000000
H     0.111000000     1.615000000     8.165000000
C    -0.016000000     2.412000000     6.164000000
O     1.318000000     2.335000000     5.935000000
C     1.972000000     1.136000000     5.530000000
C     3.344000000     0.937000000     5.797000000
H     3.885000000     1.770000000     6.238000000
C     4.028000000    -0.131000000     5.209000000
O     5.429000000    -0.400000000     5.233000000
C     6.112000000    -0.833000000     4.134000000
C     6.014000000    -0.172000000     2.934000000
H     5.496000000     0.783000000     2.892000000
C     7.017000000    -1.905000000     4.227000000
H     7.204000000    -2.357000000     5.198000000
C     7.639000000    -2.389000000     3.059000000
H     8.423000000    -3.143000000     3.070000000
C     7.396000000    -1.770000000     1.813000000
H     7.832000000    -2.052000000     0.857000000
C     6.523000000    -0.650000000     1.739000000
O     6.375000000     0.078000000     0.618000000
C     5.774000000    -0.310000000    -0.541000000
C     5.842000000     0.571000000    -1.623000000
H     6.509000000     1.421000000    -1.501000000
C     5.124000000     0.259000000    -2.787000000
O     5.359000000     0.996000000    -3.945000000
C     4.393000000     1.312000000    -4.848000000
C     3.431000000     2.260000000    -4.431000000
H     3.532000000     2.593000000    -3.401000000
C     4.458000000     0.919000000    -6.177000000
H     5.194000000     0.171000000    -6.462000000
C     3.508000000     1.399000000    -7.086000000
H     3.454000000     1.036000000    -8.109000000
C     2.481000000     2.238000000    -6.635000000
H     1.630000000     2.491000000    -7.261000000
C     2.452000000     2.702000000    -5.380000000
O     1.550000000     3.595000000    -4.904000000
C     0.217000000     3.299000000    -4.755000000
C    -0.751000000     4.346000000    -4.693000000
H    -0.388000000     5.350000000    -4.898000000
C    -2.033000000     3.973000000    -4.398000000
O    -2.995000000     4.993000000    -4.368000000
C    -3.880000000     5.161000000    -3.410000000
C    -5.128000000     5.653000000    -3.761000000
H    -5.302000000     5.677000000    -4.833000000
C    -6.053000000     6.131000000    -2.836000000
H    -6.971000000     6.600000000    -3.178000000
C    -5.762000000     6.000000000    -1.464000000
H    -6.427000000     6.419000000    -0.713000000
C    -4.461000000     5.500000000    -1.084000000
C    -3.531000000     5.102000000    -2.078000000
H    -2.560000000     4.886000000    -1.641000000
O     7.478000000     2.705000000    -5.039000000
H     8.419000000     2.629000000    -4.881000000
H     7.079000000     2.560000000    -4.181000000
O     2.630000000     4.012000000     2.577000000
H     3.207000000     3.810000000     3.314000000
H     3.111000000     3.710000000     1.806000000
O     6.662000000     5.531000000     3.741000000
H     6.654000000     4.711000000     3.248000000
H     6.440000000     6.201000000     3.094000000
O     1.820000000     6.851000000    -0.008000000
H     1.893000000     5.984000000    -0.407000000
H     0.894000000     6.931000000     0.221000000
O     4.838000000     5.206000000    -2.148000000
H     4.064000000     4.884000000    -1.686000000
H     5.494000000     4.520000000    -2.025000000
O     4.634000000     6.849000000     2.065000000
H     4.577000000     5.902000000     1.935000000
H     4.179000000     7.222000000     1.310000000
O     4.518000000    10.164000000     0.533000000
H     3.654000000    10.446000000     0.233000000
H     4.681000000     9.349000000     0.058000000
O     3.328000000     8.975000000     4.035000000
H     2.543000000     8.826000000     4.562000000
H     3.364000000     8.225000000     3.442000000
O     5.744000000     3.995000000     1.700000000
H     6.266000000     4.672000000     1.269000000
H     5.064000000     3.775000000     1.063000000
O     0.105000000     4.491000000     2.062000000
H    -0.065000000     3.550000000     2.107000000
H     1.057000000     4.566000000     2.125000000
O     2.384000000     8.650000000    -4.014000000
H     2.129000000     9.010000000    -3.164000000
H     2.139000000     7.726000000    -3.966000000
O     4.343000000     4.050000000     4.519000000
H     5.126000000     4.340000000     4.051000000
H     4.005000000     4.843000000     4.935000000
O     5.320000000     6.100000000    -4.620000000
H     6.114000000     6.621000000    -4.498000000
H     5.017000000     5.914000000    -3.731000000
O     2.099000000     5.920000000    -3.390000000
H     2.203000000     5.571000000    -2.505000000
H     1.994000000     5.145000000    -3.942000000
O     5.692000000     9.580000000    -2.516000000
H     5.280000000    10.339000000    -2.930000000
H     4.995000000     8.926000000    -2.468000000
O     7.632000000     4.269000000    -1.597000000
H     8.542000000     4.319000000    -1.892000000
H     7.422000000     5.161000000    -1.318000000
O     4.155000000     7.766000000    -0.787000000
H     4.385000000     6.932000000    -1.197000000
H     3.222000000     7.686000000    -0.588000000
O     7.730000000     6.315000000     0.571000000
H     8.643000000     6.418000000     0.837000000
H     7.346000000     7.184000000     0.689000000
O    -0.474000000     7.072000000     1.413000000
H    -0.988000000     7.426000000     2.139000000
H    -0.347000000     6.150000000     1.638000000
