201
-1230.98359
C     2.881000000    -1.477000000     4.041000000
H     3.295000000    -2.434000000     3.736000000
C     1.488000000    -1.245000000     3.948000000
C     0.957000000    -0.028000000     4.379000000
H    -0.101000000     0.198000000     4.276000000
C     0.548000000    -2.202000000     3.189000000
O     0.992000000    -3.554000000     3.076000000
H     0.303000000    -1.828000000     2.184000000
O    -0.669000000    -2.291000000     3.873000000
C    -1.833000000    -2.178000000     3.020000000
C    -2.601000000    -1.066000000     3.149000000
H    -2.234000000    -0.223000000     3.730000000
C    -3.786000000    -0.895000000     2.454000000
O    -4.371000000     0.327000000     2.500000000
C    -4.251000000    -1.952000000     1.677000000
C    -5.374000000    -1.647000000     0.708000000
H    -5.802000000    -2.613000000     0.433000000
C    -4.747000000    -0.938000000    -0.548000000
C    -4.381000000    -1.792000000    -1.581000000
H    -4.473000000    -2.868000000    -1.454000000
H    -6.119000000    -0.985000000     1.155000000
C    -3.532000000    -3.147000000     1.550000000
H    -3.931000000    -3.931000000     0.911000000
C    -2.296000000    -3.261000000     2.247000000
C    -1.570000000    -4.656000000     2.266000000
H    -2.186000000    -5.451000000     1.841000000
H    -1.433000000    -5.050000000     3.275000000
C    -0.373000000    -4.641000000     1.352000000
C    -0.477000000    -5.081000000    -0.001000000
H    -1.437000000    -5.451000000    -0.351000000
C     0.866000000    -4.135000000     1.829000000
C     1.999000000    -4.009000000     1.019000000
H     2.944000000    -3.576000000     1.334000000
C     1.827000000    -4.373000000    -0.301000000
O     2.821000000    -4.125000000    -1.124000000
C     2.809000000    -2.876000000    -1.800000000
C     4.100000000    -2.098000000    -1.763000000
C     4.381000000    -1.039000000    -2.683000000
H     3.735000000    -0.987000000    -3.556000000
C     5.088000000    -2.398000000    -0.825000000
H     5.006000000    -3.226000000    -0.126000000
O     2.324000000    -3.118000000    -3.142000000
H     2.052000000    -2.199000000    -1.377000000
C     0.606000000    -4.923000000    -0.834000000
C     0.478000000    -5.194000000    -2.333000000
H    -0.272000000    -5.987000000    -2.316000000
H     1.346000000    -5.693000000    -2.769000000
C     0.023000000    -3.934000000    -3.022000000
C    -1.301000000    -3.699000000    -3.187000000
H    -1.992000000    -4.464000000    -2.845000000
C     0.969000000    -2.925000000    -3.374000000
C     0.521000000    -1.740000000    -3.934000000
H     1.256000000    -0.966000000    -4.138000000
C    -0.817000000    -1.506000000    -4.041000000
O    -1.207000000    -0.271000000    -4.563000000
C    -1.733000000     0.834000000    -3.875000000
C    -1.127000000     2.202000000    -4.372000000
C     0.194000000     2.180000000    -4.827000000
H     0.810000000     1.285000000    -4.865000000
C    -1.841000000     3.375000000    -4.156000000
H    -2.809000000     3.275000000    -3.670000000
O    -3.156000000     0.792000000    -3.831000000
H    -1.504000000     0.726000000    -2.805000000
C    -1.776000000    -2.484000000    -3.655000000
C    -3.283000000    -2.198000000    -3.798000000
H    -3.812000000    -3.138000000    -3.624000000
H    -3.481000000    -1.873000000    -4.821000000
C    -3.869000000    -1.204000000    -2.705000000
C    -3.746000000     0.192000000    -2.832000000
C    -4.014000000     0.996000000    -1.747000000
H    -3.807000000     2.062000000    -1.788000000
C    -4.512000000     0.457000000    -0.574000000
O    -4.748000000     1.250000000     0.457000000
C    -3.854000000     1.239000000     1.506000000
H    -2.882000000     0.873000000     1.143000000
C    -3.608000000     2.644000000     2.050000000
C    -3.492000000     2.825000000     3.429000000
H    -3.562000000     1.958000000     4.080000000
C    -3.655000000     3.707000000     1.121000000
H    -3.704000000     3.580000000     0.043000000
C    -3.354000000     4.982000000     1.597000000
O    -2.986000000     6.002000000     0.739000000
C    -2.974000000     5.134000000     2.962000000
H    -2.619000000     6.081000000     3.363000000
C    -3.174000000     4.083000000     3.899000000
O    -2.825000000     4.284000000     5.262000000
C    -2.066000000     3.343000000     5.833000000
C    -0.752000000     3.189000000     5.455000000
H    -0.299000000     3.840000000     4.711000000
C    -2.587000000     2.525000000     6.823000000
H    -3.608000000     2.596000000     7.188000000
C    -1.758000000     1.604000000     7.463000000
H    -2.075000000     0.958000000     8.277000000
C    -0.448000000     1.393000000     7.009000000
H     0.235000000     0.653000000     7.419000000
C     0.051000000     2.215000000     6.002000000
O     1.307000000     2.072000000     5.518000000
C     1.773000000     0.860000000     5.064000000
C     3.164000000     0.611000000     5.267000000
H     3.757000000     1.384000000     5.749000000
C     3.717000000    -0.607000000     4.727000000
O     5.053000000    -0.865000000     4.842000000
C     5.837000000    -1.529000000     3.924000000
C     5.888000000    -1.325000000     2.541000000
H     5.466000000    -0.451000000     2.052000000
C     6.629000000    -2.568000000     4.468000000
H     6.606000000    -2.742000000     5.541000000
C     7.320000000    -3.387000000     3.560000000
H     7.782000000    -4.187000000     4.132000000
C     7.468000000    -3.167000000     2.190000000
H     8.154000000    -3.642000000     1.494000000
C     6.729000000    -2.108000000     1.684000000
O     6.934000000    -1.818000000     0.373000000
C     6.042000000    -1.422000000    -0.611000000
C     6.264000000    -0.301000000    -1.434000000
H     7.098000000     0.388000000    -1.335000000
C     5.414000000    -0.105000000    -2.513000000
O     5.623000000     0.867000000    -3.460000000
C     4.783000000     1.076000000    -4.591000000
C     3.957000000     2.160000000    -4.496000000
H     4.190000000     2.852000000    -3.691000000
C     4.617000000     0.182000000    -5.624000000
H     5.232000000    -0.707000000    -5.739000000
C     3.569000000     0.379000000    -6.534000000
H     3.417000000    -0.260000000    -7.401000000
C     2.712000000     1.509000000    -6.394000000
H     1.903000000     1.612000000    -7.112000000
C     2.949000000     2.359000000    -5.389000000
O     2.164000000     3.439000000    -5.210000000
C     0.793000000     3.397000000    -5.070000000
C     0.100000000     4.601000000    -4.909000000
H     0.561000000     5.578000000    -5.031000000
C    -1.177000000     4.594000000    -4.339000000
O    -1.751000000     5.837000000    -3.909000000
C    -2.720000000     5.848000000    -2.911000000
C    -4.084000000     5.717000000    -3.214000000
H    -4.309000000     5.750000000    -4.276000000
C    -5.133000000     5.712000000    -2.224000000
H    -6.190000000     5.610000000    -2.459000000
C    -4.748000000     5.842000000    -0.842000000
H    -5.509000000     5.857000000    -0.066000000
C    -3.391000000     6.025000000    -0.556000000
C    -2.402000000     6.149000000    -1.561000000
H    -1.341000000     6.240000000    -1.344000000
O     1.195000000     3.699000000     1.819000000
H     0.882000000     3.042000000     1.197000000
H     0.984000000     4.538000000     1.408000000
O     5.758000000     2.207000000     2.725000000
H     6.331000000     1.855000000     2.043000000
H     5.119000000     2.739000000     2.250000000
O     1.860000000     5.228000000     4.132000000
H     2.613000000     5.696000000     3.773000000
H     1.566000000     4.663000000     3.418000000
O     2.494000000     8.133000000    -0.831000000
H     2.122000000     7.453000000    -1.393000000
H     1.748000000     8.466000000    -0.332000000
O     0.465000000    10.762000000    -2.611000000
H     1.191000000    11.022000000    -3.178000000
H     0.361000000     9.824000000    -2.769000000
O     7.117000000     3.760000000    -4.589000000
H     6.567000000     3.932000000    -3.825000000
H     7.352000000     2.835000000    -4.511000000
O     7.176000000     7.036000000    -0.909000000
H     7.682000000     6.849000000    -0.118000000
H     6.278000000     7.148000000    -0.597000000
O     4.777000000     6.840000000     0.280000000
H     4.465000000     5.936000000     0.323000000
H     4.061000000     7.321000000    -0.134000000
O     3.917000000     3.557000000     1.022000000
H     3.663000000     3.835000000     0.142000000
H     3.094000000     3.526000000     1.510000000
O     3.679000000    10.647000000    -1.750000000
H     3.799000000     9.727000000    -1.985000000
H     2.819000000    10.678000000    -1.331000000
O     5.788000000     4.452000000    -2.135000000
H     4.834000000     4.422000000    -2.054000000
H     6.024000000     5.337000000    -1.856000000
O     0.708000000     6.012000000     0.678000000
H     0.996000000     6.041000000    -0.235000000
H     0.402000000     6.900000000     0.861000000
O     3.087000000     5.464000000    -7.371000000
H     3.981000000     5.299000000    -7.072000000
H     2.766000000     4.607000000    -7.651000000
O    -1.704000000     8.284000000    -5.999000000
H    -1.554000000     7.964000000    -5.109000000
H    -2.379000000     8.956000000    -5.901000000
O     0.026000000     8.112000000    -3.082000000
H     0.371000000     7.282000000    -2.752000000
H    -0.836000000     8.192000000    -2.674000000
O     8.128000000     3.383000000    -1.403000000
H     8.761000000     4.099000000    -1.465000000
H     7.281000000     3.798000000    -1.567000000
O     3.422000000     6.188000000    -4.483000000
H     3.362000000     5.694000000    -3.666000000
H     3.184000000     5.558000000    -5.163000000
O     0.101000000     8.614000000     0.395000000
H    -0.832000000     8.797000000     0.290000000
H     0.294000000     8.867000000     1.298000000
O     1.646000000     8.317000000    -5.585000000
H     2.332000000     7.719000000    -5.288000000
H     1.068000000     8.413000000    -4.828000000
