201
-1250.14174
C     3.224000000    -1.916000000     3.913000000
H     3.556000000    -2.776000000     3.338000000
C     1.828000000    -1.616000000     4.027000000
C     1.460000000    -0.539000000     4.753000000
H     0.412000000    -0.275000000     4.870000000
C     0.832000000    -2.501000000     3.395000000
O     1.467000000    -3.721000000     2.889000000
H     0.431000000    -2.052000000     2.474000000
O    -0.293000000    -2.722000000     4.267000000
C    -1.524000000    -2.693000000     3.674000000
C    -2.226000000    -1.470000000     3.733000000
H    -1.882000000    -0.647000000     4.353000000
C    -3.279000000    -1.233000000     2.870000000
O    -3.856000000     0.047000000     3.024000000
C    -3.795000000    -2.212000000     2.023000000
C    -5.033000000    -1.826000000     1.243000000
H    -5.670000000    -2.681000000     1.006000000
C    -4.750000000    -1.022000000     0.000000000
C    -4.494000000    -1.745000000    -1.192000000
H    -4.569000000    -2.821000000    -1.058000000
H    -5.678000000    -1.229000000     1.891000000
C    -3.198000000    -3.468000000     1.976000000
H    -3.456000000    -4.211000000     1.226000000
C    -2.030000000    -3.660000000     2.752000000
C    -1.146000000    -4.895000000     2.526000000
H    -1.755000000    -5.788000000     2.376000000
H    -0.545000000    -5.093000000     3.416000000
C    -0.148000000    -4.729000000     1.354000000
C    -0.544000000    -4.993000000     0.070000000
H    -1.555000000    -5.348000000    -0.112000000
C     1.129000000    -4.169000000     1.630000000
C     2.043000000    -3.957000000     0.661000000
H     3.026000000    -3.521000000     0.822000000
C     1.664000000    -4.327000000    -0.677000000
O     2.541000000    -3.980000000    -1.607000000
C     2.318000000    -2.770000000    -2.412000000
C     3.529000000    -1.808000000    -2.399000000
C     3.793000000    -1.050000000    -3.518000000
H     3.176000000    -1.127000000    -4.409000000
C     4.360000000    -1.626000000    -1.214000000
H     4.172000000    -2.225000000    -0.326000000
O     1.728000000    -3.008000000    -3.686000000
H     1.523000000    -2.202000000    -1.907000000
C     0.350000000    -4.783000000    -0.974000000
C    -0.033000000    -5.069000000    -2.439000000
H    -0.852000000    -5.785000000    -2.543000000
H     0.787000000    -5.500000000    -3.018000000
C    -0.510000000    -3.809000000    -3.158000000
C    -1.852000000    -3.419000000    -3.115000000
H    -2.581000000    -3.951000000    -2.508000000
C     0.423000000    -2.858000000    -3.642000000
C    -0.061000000    -1.685000000    -4.171000000
H     0.656000000    -0.933000000    -4.491000000
C    -1.414000000    -1.382000000    -4.254000000
O    -1.808000000    -0.082000000    -4.722000000
C    -2.222000000     0.959000000    -3.705000000
C    -1.583000000     2.241000000    -3.924000000
C    -0.354000000     2.276000000    -4.610000000
H     0.251000000     1.376000000    -4.687000000
C    -2.220000000     3.463000000    -3.676000000
H    -3.203000000     3.450000000    -3.212000000
O    -3.683000000     1.032000000    -3.475000000
H    -1.927000000     0.624000000    -2.700000000
C    -2.326000000    -2.232000000    -3.648000000
C    -3.799000000    -1.941000000    -3.622000000
H    -4.429000000    -2.831000000    -3.560000000
H    -4.061000000    -1.330000000    -4.489000000
C    -4.128000000    -1.088000000    -2.347000000
C    -4.170000000     0.302000000    -2.424000000
C    -4.400000000     1.025000000    -1.269000000
H    -4.272000000     2.102000000    -1.189000000
C    -4.664000000     0.415000000    -0.082000000
O    -4.660000000     1.146000000     1.090000000
C    -3.496000000     0.970000000     2.010000000
H    -2.698000000     0.614000000     1.342000000
C    -2.998000000     2.327000000     2.502000000
C    -2.865000000     2.596000000     3.859000000
H    -3.071000000     1.856000000     4.628000000
C    -2.771000000     3.317000000     1.520000000
H    -2.938000000     3.102000000     0.468000000
C    -2.296000000     4.619000000     1.967000000
O    -2.099000000     5.716000000     1.170000000
C    -2.126000000     4.823000000     3.325000000
H    -1.726000000     5.761000000     3.702000000
C    -2.296000000     3.791000000     4.299000000
O    -1.997000000     4.053000000     5.652000000
C    -1.172000000     3.132000000     6.265000000
C     0.097000000     2.911000000     5.772000000
H     0.477000000     3.411000000     4.885000000
C    -1.715000000     2.315000000     7.301000000
H    -2.687000000     2.616000000     7.685000000
C    -0.940000000     1.298000000     7.869000000
H    -1.417000000     0.728000000     8.662000000
C     0.354000000     1.098000000     7.463000000
H     0.958000000     0.301000000     7.888000000
C     0.843000000     1.945000000     6.466000000
O     2.013000000     1.589000000     5.833000000
C     2.397000000     0.393000000     5.230000000
C     3.759000000     0.149000000     5.098000000
H     4.478000000     0.828000000     5.550000000
C     4.187000000    -1.059000000     4.541000000
O     5.545000000    -1.224000000     4.522000000
C     6.154000000    -1.595000000     3.361000000
C     6.000000000    -0.809000000     2.211000000
H     5.708000000     0.234000000     2.307000000
C     6.535000000    -2.975000000     3.197000000
H     6.447000000    -3.522000000     4.132000000
C     6.815000000    -3.487000000     1.910000000
H     6.985000000    -4.555000000     1.796000000
C     6.701000000    -2.679000000     0.795000000
H     6.975000000    -3.026000000    -0.197000000
C     6.289000000    -1.366000000     0.938000000
O     6.246000000    -0.524000000    -0.160000000
C     5.384000000    -0.685000000    -1.203000000
C     5.625000000     0.036000000    -2.329000000
H     6.418000000     0.779000000    -2.343000000
C     4.935000000    -0.231000000    -3.495000000
O     5.182000000     0.653000000    -4.582000000
C     4.164000000     1.028000000    -5.493000000
C     3.269000000     2.002000000    -5.062000000
H     3.354000000     2.305000000    -4.022000000
C     4.160000000     0.602000000    -6.827000000
H     4.897000000    -0.159000000    -7.069000000
C     3.235000000     1.163000000    -7.707000000
H     3.163000000     0.895000000    -8.759000000
C     2.395000000     2.186000000    -7.250000000
H     1.661000000     2.612000000    -7.930000000
C     2.371000000     2.604000000    -5.946000000
O     1.514000000     3.611000000    -5.545000000
C     0.234000000     3.506000000    -4.965000000
C    -0.373000000     4.648000000    -4.597000000
H     0.055000000     5.585000000    -4.944000000
C    -1.606000000     4.650000000    -3.963000000
O    -2.058000000     5.870000000    -3.586000000
C    -2.733000000     6.034000000    -2.414000000
C    -4.145000000     6.198000000    -2.353000000
H    -4.741000000     6.253000000    -3.260000000
C    -4.771000000     6.232000000    -1.140000000
H    -5.844000000     6.386000000    -1.056000000
C    -4.063000000     6.087000000     0.035000000
H    -4.573000000     5.951000000     0.986000000
C    -2.730000000     5.841000000    -0.010000000
C    -2.041000000     5.922000000    -1.228000000
H    -0.983000000     5.669000000    -1.219000000
O     3.089000000     2.990000000     2.674000000
H     3.904000000     3.093000000     2.183000000
H     2.556000000     2.407000000     2.133000000
O     6.110000000     2.524000000     3.991000000
H     6.282000000     3.365000000     3.566000000
H     5.181000000     2.360000000     3.830000000
O     1.682000000     5.086000000     3.346000000
H     1.801000000     5.249000000     4.282000000
H     2.373000000     4.463000000     3.122000000
O     4.540000000     5.901000000     0.794000000
H     4.174000000     5.256000000     0.188000000
H     3.775000000     6.344000000     1.161000000
O     5.379000000     3.746000000    -3.205000000
H     4.790000000     3.727000000    -2.451000000
H     5.995000000     3.031000000    -3.047000000
O     6.032000000     3.743000000    -5.855000000
H     6.615000000     4.500000000    -5.796000000
H     5.654000000     3.663000000    -4.979000000
O     7.720000000     2.873000000    -2.059000000
H     8.114000000     2.989000000    -1.195000000
H     8.201000000     2.141000000    -2.446000000
O     6.091000000     5.298000000     3.094000000
H     5.661000000     5.491000000     2.261000000
H     5.564000000     5.756000000     3.748000000
O     5.761000000     2.607000000     1.088000000
H     6.610000000     2.204000000     0.906000000
H     5.421000000     2.848000000     0.227000000
O     1.040000000     6.044000000     0.805000000
H     1.580000000     5.507000000     0.225000000
H     0.889000000     5.491000000     1.571000000
O     4.453000000     6.747000000     4.468000000
H     4.801000000     7.561000000     4.831000000
H     3.790000000     7.030000000     3.838000000
O     5.323000000     6.464000000    -4.548000000
H     5.280000000     5.882000000    -3.789000000
H     6.258000000     6.617000000    -4.680000000
O     2.911000000     7.426000000    -4.877000000
H     3.815000000     7.130000000    -4.773000000
H     2.483000000     7.180000000    -4.058000000
O     1.758000000     6.965000000    -2.299000000
H     2.197000000     6.266000000    -1.814000000
H     1.483000000     7.587000000    -1.626000000
O     3.086000000     7.622000000     2.200000000
H     3.169000000     8.568000000     2.079000000
H     2.266000000     7.395000000     1.759000000
O     8.873000000     4.234000000     2.143000000
H     9.286000000     4.360000000     1.289000000
H     7.940000000     4.368000000     1.980000000
O     7.304000000     5.176000000    -0.143000000
H     7.170000000     4.680000000    -0.951000000
H     6.426000000     5.455000000     0.115000000
O     4.005000000     4.763000000    -7.250000000
H     3.376000000     4.730000000    -6.530000000
H     4.753000000     4.253000000    -6.939000000
O    -0.555000000     8.154000000     1.049000000
H    -1.492000000     7.969000000     0.995000000
H    -0.134000000     7.330000000     0.805000000
