201
-1248.80099
C     1.688000000     0.680000000     5.025000000
H     2.320000000    -0.150000000     4.721000000
C     0.339000000     0.413000000     4.818000000
C    -0.529000000     1.444000000     5.135000000
H    -1.593000000     1.257000000     5.015000000
C    -0.183000000    -0.901000000     4.265000000
O     0.714000000    -2.072000000     4.511000000
H    -0.149000000    -0.795000000     3.171000000
O    -1.531000000    -1.193000000     4.602000000
C    -2.441000000    -1.716000000     3.654000000
C    -3.355000000    -0.833000000     3.095000000
H    -3.346000000     0.216000000     3.380000000
C    -4.210000000    -1.247000000     2.071000000
O    -5.033000000    -0.258000000     1.479000000
C    -4.041000000    -2.508000000     1.534000000
C    -4.842000000    -2.922000000     0.254000000
H    -5.056000000    -3.992000000     0.312000000
C    -4.130000000    -2.522000000    -1.046000000
C    -3.273000000    -3.442000000    -1.656000000
H    -3.163000000    -4.464000000    -1.303000000
H    -5.813000000    -2.423000000     0.280000000
C    -3.093000000    -3.418000000     2.052000000
H    -2.931000000    -4.393000000     1.600000000
C    -2.291000000    -3.038000000     3.093000000
C    -1.258000000    -4.043000000     3.673000000
H    -1.553000000    -5.073000000     3.463000000
H    -1.126000000    -3.875000000     4.744000000
C     0.083000000    -3.803000000     3.033000000
C     0.454000000    -4.593000000     1.962000000
H    -0.161000000    -5.435000000     1.655000000
C     1.037000000    -2.921000000     3.517000000
C     2.258000000    -2.707000000     2.852000000
H     2.848000000    -1.877000000     3.232000000
C     2.581000000    -3.480000000     1.743000000
O     3.655000000    -2.991000000     0.979000000
C     3.450000000    -2.331000000    -0.297000000
C     4.425000000    -1.218000000    -0.438000000
C     4.969000000    -0.938000000    -1.731000000
H     4.902000000    -1.607000000    -2.585000000
C     4.727000000    -0.459000000     0.668000000
H     4.225000000    -0.714000000     1.598000000
O     3.514000000    -3.229000000    -1.432000000
H     2.431000000    -1.926000000    -0.386000000
C     1.671000000    -4.438000000     1.257000000
C     1.984000000    -5.115000000    -0.019000000
H     1.607000000    -6.129000000     0.134000000
H     3.060000000    -5.240000000    -0.159000000
C     1.428000000    -4.364000000    -1.250000000
C     0.152000000    -4.629000000    -1.722000000
H    -0.512000000    -5.154000000    -1.040000000
C     2.306000000    -3.495000000    -1.945000000
C     1.842000000    -2.872000000    -3.095000000
H     2.504000000    -2.243000000    -3.686000000
C     0.582000000    -3.115000000    -3.592000000
O     0.122000000    -2.384000000    -4.644000000
C    -0.607000000    -1.207000000    -4.199000000
C    -0.055000000     0.134000000    -4.654000000
C     1.210000000     0.305000000    -5.236000000
H     1.768000000    -0.595000000    -5.482000000
C    -0.842000000     1.288000000    -4.395000000
H    -1.839000000     1.190000000    -3.975000000
O    -2.001000000    -1.339000000    -4.337000000
H    -0.484000000    -1.037000000    -3.120000000
C    -0.309000000    -3.964000000    -2.859000000
C    -1.666000000    -4.156000000    -3.430000000
H    -1.965000000    -5.169000000    -3.152000000
H    -1.732000000    -4.076000000    -4.517000000
C    -2.592000000    -3.137000000    -2.848000000
C    -2.751000000    -1.821000000    -3.363000000
C    -3.626000000    -0.901000000    -2.724000000
H    -3.693000000     0.116000000    -3.102000000
C    -4.373000000    -1.271000000    -1.587000000
O    -4.988000000    -0.330000000    -0.909000000
C    -4.400000000     0.305000000     0.230000000
H    -3.334000000     0.040000000     0.286000000
C    -4.489000000     1.836000000     0.211000000
C    -4.332000000     2.504000000     1.437000000
H    -4.118000000     1.960000000     2.354000000
C    -4.696000000     2.597000000    -0.969000000
H    -4.738000000     2.012000000    -1.885000000
C    -4.741000000     4.002000000    -0.910000000
O    -4.989000000     4.815000000    -1.986000000
C    -4.646000000     4.607000000     0.389000000
H    -4.670000000     5.692000000     0.452000000
C    -4.268000000     3.890000000     1.543000000
O    -3.932000000     4.568000000     2.721000000
C    -3.783000000     4.025000000     3.999000000
C    -2.541000000     3.972000000     4.398000000
H    -1.748000000     4.323000000     3.743000000
C    -4.876000000     3.724000000     4.766000000
H    -5.913000000     3.731000000     4.440000000
C    -4.556000000     3.295000000     6.078000000
H    -5.327000000     2.991000000     6.782000000
C    -3.226000000     3.195000000     6.522000000
H    -3.112000000     2.919000000     7.568000000
C    -2.195000000     3.590000000     5.698000000
O    -0.890000000     3.551000000     6.176000000
C    -0.048000000     2.637000000     5.705000000
C     1.281000000     2.767000000     6.043000000
H     1.671000000     3.678000000     6.490000000
C     2.233000000     1.859000000     5.595000000
O     3.521000000     1.872000000     5.895000000
C     4.602000000     1.389000000     5.046000000
C     4.709000000     1.762000000     3.709000000
H     3.894000000     2.368000000     3.322000000
C     5.413000000     0.431000000     5.546000000
H     5.183000000     0.077000000     6.548000000
C     6.387000000    -0.213000000     4.795000000
H     7.055000000    -0.964000000     5.209000000
C     6.592000000     0.245000000     3.474000000
H     7.374000000    -0.147000000     2.829000000
C     5.764000000     1.240000000     2.923000000
O     5.835000000     1.522000000     1.542000000
C     5.566000000     0.629000000     0.519000000
C     6.049000000     0.996000000    -0.723000000
H     6.626000000     1.897000000    -0.914000000
C     5.711000000     0.217000000    -1.874000000
O     6.414000000     0.576000000    -3.050000000
C     5.817000000     0.351000000    -4.235000000
C     4.590000000     1.045000000    -4.456000000
H     4.087000000     1.547000000    -3.633000000
C     6.521000000    -0.184000000    -5.356000000
H     7.504000000    -0.609000000    -5.165000000
C     6.089000000    -0.038000000    -6.645000000
H     6.726000000    -0.301000000    -7.486000000
C     4.883000000     0.659000000    -6.850000000
H     4.511000000     0.838000000    -7.856000000
C     4.085000000     1.098000000    -5.781000000
O     2.957000000     1.821000000    -6.141000000
C     1.696000000     1.576000000    -5.644000000
C     0.879000000     2.643000000    -5.332000000
H     1.290000000     3.633000000    -5.513000000
C    -0.337000000     2.544000000    -4.718000000
O    -1.025000000     3.678000000    -4.460000000
C    -2.394000000     3.923000000    -4.423000000
C    -3.099000000     3.897000000    -5.601000000
H    -2.576000000     3.676000000    -6.529000000
C    -4.436000000     4.346000000    -5.556000000
H    -4.953000000     4.445000000    -6.507000000
C    -5.054000000     4.668000000    -4.354000000
H    -6.124000000     4.858000000    -4.404000000
C    -4.315000000     4.698000000    -3.159000000
C    -2.987000000     4.362000000    -3.218000000
H    -2.411000000     4.467000000    -2.302000000
O     2.338000000     9.556000000     0.261000000
H     2.287000000     8.901000000     0.957000000
H     2.115000000    10.381000000     0.692000000
O     6.487000000     4.174000000     2.167000000
H     5.994000000     4.727000000     1.561000000
H     6.346000000     3.283000000     1.847000000
O     5.350000000     7.997000000     0.207000000
H     6.297000000     8.125000000     0.162000000
H     5.052000000     8.087000000    -0.698000000
O    -1.075000000     9.302000000     1.643000000
H    -1.333000000     8.413000000     1.886000000
H    -0.652000000     9.205000000     0.790000000
O    -1.757000000     7.285000000    -2.783000000
H    -1.119000000     6.768000000    -2.291000000
H    -1.486000000     7.194000000    -3.697000000
O    -0.450000000     7.610000000     4.648000000
H    -1.048000000     7.057000000     4.147000000
H    -0.163000000     7.057000000     5.375000000
O     4.718000000     5.343000000     0.475000000
H     4.672000000     6.289000000     0.333000000
H     3.924000000     5.136000000     0.968000000
O     0.648000000     5.972000000    -1.845000000
H     0.575000000     5.406000000    -1.076000000
H     1.485000000     6.423000000    -1.731000000
O    -1.696000000     6.634000000     2.499000000
H    -0.800000000     6.346000000     2.326000000
H    -2.245000000     5.937000000     2.140000000
O     4.718000000     4.927000000     4.179000000
H     5.186000000     4.699000000     3.376000000
H     5.385000000     5.318000000     4.743000000
O     5.468000000     4.841000000    -2.348000000
H     5.376000000     5.274000000    -1.499000000
H     5.075000000     5.452000000    -2.972000000
O    -4.104000000     8.759000000     2.389000000
H    -3.795000000     9.212000000     3.173000000
H    -3.308000000     8.432000000     1.971000000
O     0.801000000     6.451000000     6.702000000
H     1.329000000     5.904000000     6.120000000
H     0.236000000     5.832000000     7.164000000
O     2.398000000     8.225000000    -2.265000000
H     3.340000000     8.386000000    -2.317000000
H     2.166000000     8.448000000    -1.364000000
O     2.096000000     5.424000000     4.329000000
H     2.987000000     5.155000000     4.107000000
H     1.550000000     5.032000000     3.648000000
O     4.128000000     4.214000000     7.337000000
H     5.018000000     3.889000000     7.473000000
H     3.970000000     4.093000000     6.400000000
O     2.575000000     7.290000000     2.055000000
H     2.236000000     7.050000000     2.917000000
H     2.425000000     6.514000000     1.514000000
O     5.363000000     8.220000000     3.062000000
H     4.751000000     7.548000000     2.761000000
H     5.555000000     8.737000000     2.279000000
O    -0.510000000     9.250000000    -1.396000000
H    -1.230000000     8.759000000    -1.793000000
H     0.191000000     9.215000000    -2.047000000
