201
-1248.85460
C     2.498000000    -1.043000000     4.419000000
H     2.919000000    -1.930000000     3.952000000
C     1.076000000    -0.908000000     4.369000000
C     0.550000000     0.283000000     4.884000000
H    -0.529000000     0.408000000     4.930000000
C     0.236000000    -1.903000000     3.581000000
O     0.893000000    -3.169000000     3.287000000
H     0.117000000    -1.350000000     2.637000000
O    -1.066000000    -2.163000000     4.136000000
C    -2.134000000    -2.033000000     3.360000000
C    -2.917000000    -0.881000000     3.306000000
H    -2.817000000    -0.070000000     4.022000000
C    -4.009000000    -0.860000000     2.454000000
O    -4.562000000     0.383000000     2.325000000
C    -4.203000000    -1.932000000     1.559000000
C    -5.282000000    -1.775000000     0.475000000
H    -5.792000000    -2.717000000     0.265000000
C    -4.672000000    -1.163000000    -0.789000000
C    -4.347000000    -1.940000000    -1.895000000
H    -4.443000000    -3.011000000    -1.736000000
H    -6.065000000    -1.136000000     0.889000000
C    -3.504000000    -3.146000000     1.735000000
H    -3.742000000    -3.953000000     1.046000000
C    -2.501000000    -3.226000000     2.652000000
C    -1.640000000    -4.513000000     2.726000000
H    -2.174000000    -5.430000000     2.469000000
H    -1.294000000    -4.681000000     3.748000000
C    -0.490000000    -4.485000000     1.777000000
C    -0.620000000    -4.981000000     0.477000000
H    -1.579000000    -5.342000000     0.117000000
C     0.737000000    -3.890000000     2.166000000
C     1.819000000    -3.751000000     1.382000000
H     2.714000000    -3.271000000     1.769000000
C     1.728000000    -4.200000000     0.080000000
O     2.775000000    -3.953000000    -0.737000000
C     2.755000000    -2.824000000    -1.643000000
C     4.043000000    -2.098000000    -1.574000000
C     4.397000000    -1.129000000    -2.561000000
H     3.804000000    -1.141000000    -3.472000000
C     4.835000000    -2.193000000    -0.433000000
H     4.505000000    -2.736000000     0.449000000
O     2.288000000    -3.214000000    -2.949000000
H     2.019000000    -2.086000000    -1.293000000
C     0.529000000    -4.795000000    -0.407000000
C     0.402000000    -5.150000000    -1.910000000
H    -0.400000000    -5.889000000    -1.951000000
H     1.267000000    -5.686000000    -2.306000000
C    -0.037000000    -3.967000000    -2.706000000
C    -1.398000000    -3.717000000    -2.979000000
H    -2.231000000    -4.335000000    -2.655000000
C     0.959000000    -3.118000000    -3.251000000
C     0.613000000    -2.054000000    -4.046000000
H     1.417000000    -1.515000000    -4.540000000
C    -0.708000000    -1.889000000    -4.435000000
O    -1.063000000    -0.742000000    -5.060000000
C    -1.478000000     0.421000000    -4.274000000
C    -0.774000000     1.706000000    -4.621000000
C     0.495000000     1.575000000    -5.087000000
H     0.897000000     0.616000000    -5.403000000
C    -1.282000000     2.921000000    -4.199000000
H    -2.282000000     2.914000000    -3.773000000
O    -2.933000000     0.576000000    -4.151000000
H    -1.178000000     0.254000000    -3.230000000
C    -1.703000000    -2.666000000    -3.882000000
C    -3.207000000    -2.342000000    -4.092000000
H    -3.826000000    -3.241000000    -4.128000000
H    -3.323000000    -1.831000000    -5.050000000
C    -3.777000000    -1.405000000    -3.021000000
C    -3.601000000    -0.004000000    -3.121000000
C    -3.944000000     0.825000000    -2.038000000
H    -3.910000000     1.895000000    -2.226000000
C    -4.469000000     0.243000000    -0.798000000
O    -4.846000000     1.118000000     0.195000000
C    -4.010000000     1.175000000     1.325000000
H    -3.041000000     0.789000000     0.976000000
C    -3.847000000     2.573000000     1.767000000
C    -3.802000000     2.872000000     3.103000000
H    -3.979000000     2.096000000     3.843000000
C    -3.664000000     3.589000000     0.888000000
H    -3.625000000     3.280000000    -0.154000000
C    -3.327000000     4.860000000     1.315000000
O    -2.782000000     5.715000000     0.393000000
C    -3.260000000     5.102000000     2.691000000
H    -3.071000000     6.100000000     3.079000000
C    -3.545000000     4.136000000     3.632000000
O    -3.459000000     4.376000000     4.989000000
C    -2.652000000     3.568000000     5.826000000
C    -1.334000000     3.356000000     5.454000000
H    -1.005000000     3.796000000     4.516000000
C    -3.108000000     2.923000000     6.949000000
H    -4.125000000     3.016000000     7.322000000
C    -2.211000000     2.175000000     7.723000000
H    -2.608000000     1.675000000     8.603000000
C    -0.895000000     2.016000000     7.380000000
H    -0.210000000     1.418000000     7.976000000
C    -0.437000000     2.585000000     6.191000000
O     0.905000000     2.394000000     5.796000000
C     1.402000000     1.259000000     5.351000000
C     2.751000000     1.128000000     5.354000000
H     3.262000000     2.034000000     5.669000000
C     3.355000000    -0.038000000     4.892000000
O     4.752000000    -0.050000000     4.869000000
C     5.467000000    -0.980000000     4.156000000
C     5.605000000    -0.892000000     2.783000000
H     5.329000000     0.040000000     2.296000000
C     6.006000000    -2.148000000     4.785000000
H     5.792000000    -2.294000000     5.840000000
C     6.731000000    -3.081000000     4.053000000
H     7.158000000    -3.968000000     4.515000000
C     7.024000000    -2.835000000     2.729000000
H     7.677000000    -3.480000000     2.146000000
C     6.407000000    -1.822000000     2.039000000
O     6.839000000    -1.421000000     0.791000000
C     5.935000000    -1.302000000    -0.291000000
C     6.316000000    -0.397000000    -1.264000000
H     7.226000000     0.193000000    -1.190000000
C     5.538000000    -0.414000000    -2.436000000
O     5.905000000     0.382000000    -3.518000000
C     5.102000000     0.524000000    -4.695000000
C     4.129000000     1.511000000    -4.651000000
H     4.038000000     2.088000000    -3.735000000
C     5.414000000    -0.205000000    -5.860000000
H     6.245000000    -0.905000000    -5.853000000
C     4.628000000     0.013000000    -6.966000000
H     4.809000000    -0.512000000    -7.900000000
C     3.722000000     1.059000000    -6.966000000
H     3.255000000     1.350000000    -7.903000000
C     3.493000000     1.838000000    -5.839000000
O     2.501000000     2.805000000    -5.905000000
C     1.276000000     2.766000000    -5.211000000
C     0.722000000     4.021000000    -4.875000000
H     1.367000000     4.890000000    -4.981000000
C    -0.539000000     4.073000000    -4.395000000
O    -0.996000000     5.294000000    -4.058000000
C    -2.016000000     5.561000000    -3.196000000
C    -3.245000000     5.861000000    -3.754000000
H    -3.246000000     5.841000000    -4.841000000
C    -4.381000000     6.020000000    -2.937000000
H    -5.369000000     6.187000000    -3.360000000
C    -4.204000000     5.919000000    -1.587000000
H    -5.069000000     6.052000000    -0.941000000
C    -2.951000000     5.765000000    -0.943000000
C    -1.806000000     5.628000000    -1.781000000
H    -0.846000000     5.477000000    -1.295000000
O     0.898000000     6.606000000    -0.537000000
H     1.251000000     5.879000000    -0.024000000
H     0.858000000     7.337000000     0.080000000
O     5.454000000     2.585000000     2.073000000
H     4.846000000     3.301000000     2.258000000
H     5.005000000     2.053000000     1.416000000
O     7.807000000     3.940000000     1.669000000
H     8.474000000     3.259000000     1.752000000
H     6.981000000     3.488000000     1.839000000
O     0.863000000     8.886000000     0.959000000
H     1.677000000     9.298000000     0.669000000
H     0.264000000     9.618000000     1.106000000
O     4.120000000     1.277000000     0.244000000
H     3.897000000     2.138000000    -0.109000000
H     3.282000000     0.818000000     0.303000000
O     4.242000000     4.693000000    -2.874000000
H     3.816000000     4.393000000    -2.071000000
H     3.695000000     5.418000000    -3.178000000
O     2.948000000     5.914000000     5.165000000
H     3.158000000     6.825000000     5.370000000
H     2.011000000     5.838000000     5.348000000
O    -0.198000000     5.803000000     2.558000000
H     0.508000000     5.254000000     2.217000000
H    -0.885000000     5.751000000     1.894000000
O     3.841000000     5.136000000     2.666000000
H     3.043000000     4.976000000     2.163000000
H     3.534000000     5.287000000     3.560000000
O     5.825000000     5.948000000    -4.853000000
H     5.488000000     5.277000000    -4.259000000
H     6.246000000     6.587000000    -4.278000000
O     6.927000000     6.469000000     1.204000000
H     7.320000000     5.598000000     1.149000000
H     6.132000000     6.407000000     0.675000000
O     4.430000000     8.299000000     3.005000000
H     4.568000000     7.459000000     2.568000000
H     4.485000000     8.095000000     3.939000000
O     6.440000000     2.224000000     4.492000000
H     6.200000000     2.383000000     3.580000000
H     6.221000000     1.304000000     4.641000000
O     2.460000000     7.115000000    -2.862000000
H     2.078000000     7.764000000    -3.452000000
H     1.753000000     6.898000000    -2.255000000
O    -0.918000000     8.863000000    -1.863000000
H    -0.669000000     9.501000000    -1.194000000
H    -0.623000000     8.022000000    -1.514000000
O     6.656000000     3.486000000    -2.278000000
H     5.786000000     3.869000000    -2.396000000
H     6.610000000     2.644000000    -2.732000000
O    -1.833000000     8.501000000     2.398000000
H    -1.085000000     7.926000000     2.237000000
H    -1.789000000     8.695000000     3.335000000
O     0.350000000     6.507000000     5.214000000
H     0.702000000     7.384000000     5.063000000
H    -0.081000000     6.276000000     4.391000000
O     4.501000000     6.080000000    -0.236000000
H     4.117000000     5.242000000     0.022000000
H     4.389000000     6.112000000    -1.186000000
