201
-1234.80258
C     2.435000000    -1.229000000     4.443000000
H     2.900000000    -2.124000000     4.037000000
C     1.069000000    -1.005000000     4.413000000
C     0.624000000     0.167000000     5.075000000
H    -0.456000000     0.282000000     5.135000000
C     0.115000000    -1.985000000     3.789000000
O     0.572000000    -3.416000000     3.679000000
H    -0.007000000    -1.619000000     2.759000000
O    -1.131000000    -1.920000000     4.453000000
C    -2.324000000    -1.900000000     3.664000000
C    -2.992000000    -0.683000000     3.604000000
H    -2.754000000     0.062000000     4.360000000
C    -3.977000000    -0.572000000     2.634000000
O    -4.507000000     0.676000000     2.407000000
C    -4.318000000    -1.579000000     1.742000000
C    -5.321000000    -1.395000000     0.629000000
H    -5.787000000    -2.358000000     0.412000000
C    -4.642000000    -0.932000000    -0.565000000
C    -4.348000000    -1.790000000    -1.569000000
H    -4.368000000    -2.866000000    -1.417000000
H    -6.182000000    -0.770000000     0.875000000
C    -3.611000000    -2.809000000     1.836000000
H    -3.707000000    -3.662000000     1.169000000
C    -2.595000000    -2.916000000     2.796000000
C    -1.904000000    -4.218000000     2.718000000
H    -2.529000000    -5.077000000     2.465000000
H    -1.568000000    -4.450000000     3.731000000
C    -0.689000000    -4.307000000     1.871000000
C    -0.809000000    -4.821000000     0.582000000
H    -1.760000000    -5.163000000     0.183000000
C     0.495000000    -3.916000000     2.430000000
C     1.644000000    -3.913000000     1.637000000
H     2.585000000    -3.564000000     2.053000000
C     1.507000000    -4.228000000     0.337000000
O     2.579000000    -4.027000000    -0.461000000
C     2.655000000    -2.877000000    -1.298000000
C     4.087000000    -2.405000000    -1.502000000
C     4.365000000    -1.575000000    -2.594000000
H     3.672000000    -1.509000000    -3.429000000
C     4.969000000    -2.453000000    -0.426000000
H     4.756000000    -2.986000000     0.496000000
O     2.207000000    -3.265000000    -2.620000000
H     1.940000000    -2.101000000    -0.987000000
C     0.317000000    -4.770000000    -0.220000000
C     0.116000000    -5.153000000    -1.690000000
H    -0.711000000    -5.867000000    -1.683000000
H     0.981000000    -5.713000000    -2.052000000
C    -0.173000000    -3.899000000    -2.537000000
C    -1.518000000    -3.700000000    -2.930000000
H    -2.327000000    -4.222000000    -2.428000000
C     0.882000000    -3.046000000    -2.928000000
C     0.453000000    -2.002000000    -3.699000000
H     1.229000000    -1.361000000    -4.110000000
C    -0.887000000    -1.786000000    -4.108000000
O    -1.190000000    -0.767000000    -4.966000000
C    -1.588000000     0.419000000    -4.282000000
C    -0.836000000     1.693000000    -4.812000000
C     0.531000000     1.618000000    -5.114000000
H     1.035000000     0.676000000    -4.914000000
C    -1.571000000     2.912000000    -4.809000000
H    -2.629000000     2.927000000    -4.559000000
O    -2.996000000     0.584000000    -4.125000000
H    -1.186000000     0.285000000    -3.266000000
C    -1.891000000    -2.627000000    -3.682000000
C    -3.381000000    -2.282000000    -3.931000000
H    -4.010000000    -3.170000000    -3.833000000
H    -3.458000000    -1.860000000    -4.935000000
C    -3.864000000    -1.380000000    -2.818000000
C    -3.668000000    -0.007000000    -3.029000000
C    -4.074000000     0.926000000    -2.049000000
H    -3.811000000     1.959000000    -2.258000000
C    -4.517000000     0.467000000    -0.789000000
O    -4.704000000     1.386000000     0.240000000
C    -3.760000000     1.361000000     1.332000000
H    -2.851000000     0.773000000     1.136000000
C    -3.219000000     2.748000000     1.652000000
C    -3.078000000     3.117000000     2.996000000
H    -3.381000000     2.495000000     3.834000000
C    -2.839000000     3.579000000     0.628000000
H    -2.907000000     3.318000000    -0.425000000
C    -2.442000000     4.904000000     0.922000000
O    -2.308000000     5.778000000    -0.091000000
C    -2.343000000     5.325000000     2.263000000
H    -2.095000000     6.362000000     2.473000000
C    -2.582000000     4.408000000     3.303000000
O    -2.402000000     4.798000000     4.569000000
C    -1.920000000     3.931000000     5.534000000
C    -0.591000000     3.487000000     5.464000000
H     0.054000000     3.955000000     4.726000000
C    -2.754000000     3.559000000     6.605000000
H    -3.691000000     4.097000000     6.726000000
C    -2.337000000     2.606000000     7.484000000
H    -2.964000000     2.405000000     8.349000000
C    -1.045000000     2.091000000     7.402000000
H    -0.689000000     1.430000000     8.188000000
C    -0.219000000     2.567000000     6.407000000
O     1.090000000     2.092000000     6.402000000
C     1.539000000     1.000000000     5.716000000
C     2.873000000     0.814000000     5.512000000
H     3.553000000     1.566000000     5.904000000
C     3.371000000    -0.288000000     4.817000000
O     4.701000000    -0.306000000     4.603000000
C     5.463000000    -1.180000000     3.873000000
C     5.849000000    -0.904000000     2.535000000
H     5.359000000    -0.123000000     1.959000000
C     6.064000000    -2.168000000     4.566000000
H     5.748000000    -2.357000000     5.588000000
C     7.031000000    -2.971000000     3.943000000
H     7.596000000    -3.677000000     4.545000000
C     7.347000000    -2.774000000     2.604000000
H     8.197000000    -3.339000000     2.229000000
C     6.761000000    -1.805000000     1.878000000
O     7.043000000    -1.679000000     0.603000000
C     6.161000000    -1.812000000    -0.501000000
C     6.411000000    -1.036000000    -1.580000000
H     7.249000000    -0.346000000    -1.631000000
C     5.588000000    -0.895000000    -2.692000000
O     5.951000000     0.050000000    -3.690000000
C     5.048000000     0.307000000    -4.670000000
C     4.185000000     1.410000000    -4.558000000
H     4.060000000     1.994000000    -3.649000000
C     4.913000000    -0.567000000    -5.751000000
H     5.616000000    -1.393000000    -5.818000000
C     4.074000000    -0.261000000    -6.781000000
H     3.938000000    -0.976000000    -7.587000000
C     3.236000000     0.837000000    -6.700000000
H     2.648000000     1.206000000    -7.537000000
C     3.312000000     1.724000000    -5.590000000
O     2.538000000     2.835000000    -5.553000000
C     1.152000000     2.847000000    -5.387000000
C     0.459000000     4.022000000    -5.460000000
H     0.998000000     4.963000000    -5.538000000
C    -0.902000000     4.093000000    -5.177000000
O    -1.641000000     5.256000000    -4.917000000
C    -2.482000000     5.360000000    -3.817000000
C    -3.848000000     5.467000000    -3.904000000
H    -4.341000000     5.238000000    -4.845000000
C    -4.742000000     5.681000000    -2.883000000
H    -5.814000000     5.679000000    -3.063000000
C    -4.135000000     5.794000000    -1.628000000
H    -4.769000000     5.717000000    -0.748000000
C    -2.760000000     5.789000000    -1.410000000
C    -1.914000000     5.540000000    -2.559000000
H    -0.843000000     5.498000000    -2.381000000
O     0.068000000     7.370000000    -0.420000000
H    -0.826000000     7.139000000    -0.672000000
H     0.468000000     6.537000000    -0.168000000
O     6.033000000     2.598000000     2.874000000
H     5.127000000     2.900000000     2.932000000
H     6.149000000     2.040000000     3.642000000
O     6.930000000     5.948000000    -0.041000000
H     7.336000000     6.281000000    -0.842000000
H     6.174000000     5.447000000    -0.346000000
O     2.838000000     7.005000000     1.735000000
H     2.325000000     6.312000000     2.150000000
H     2.476000000     7.075000000     0.852000000
O     1.634000000    10.611000000     0.723000000
H     1.041000000    11.065000000     0.124000000
H     1.056000000    10.190000000     1.359000000
O     3.764000000     1.615000000    -1.208000000
H     3.868000000     0.750000000    -1.603000000
H     3.457000000     1.438000000    -0.319000000
O     3.126000000     5.477000000     5.741000000
H     2.855000000     5.216000000     6.622000000
H     2.533000000     5.003000000     5.158000000
O     3.623000000     8.384000000     5.827000000
H     3.470000000     7.601000000     5.298000000
H     3.532000000     9.111000000     5.212000000
O     0.044000000     8.814000000     2.072000000
H     0.991000000     8.677000000     2.100000000
H    -0.227000000     8.447000000     1.231000000
O     1.919000000     7.850000000    -2.509000000
H     2.587000000     7.190000000    -2.322000000
H     1.261000000     7.726000000    -1.825000000
O    -2.361000000     9.213000000     3.255000000
H    -2.167000000     9.205000000     4.193000000
H    -1.508000000     9.111000000     2.834000000
O     3.142000000     1.103000000     1.291000000
H     2.197000000     0.991000000     1.401000000
H     3.399000000     1.681000000     2.010000000
O     5.043000000     5.849000000     2.668000000
H     5.773000000     6.461000000     2.570000000
H     4.325000000     6.252000000     2.180000000
O    -2.947000000     8.872000000    -1.064000000
H    -3.678000000     8.998000000    -1.670000000
H    -3.274000000     8.241000000    -0.423000000
O     7.077000000     1.865000000     0.471000000
H     6.578000000     2.271000000     1.180000000
H     6.783000000     0.954000000     0.463000000
O     5.188000000     3.997000000    -1.214000000
H     6.027000000     3.578000000    -1.404000000
H     4.562000000     3.274000000    -1.180000000
O     0.339000000     6.558000000     4.101000000
H     0.118000000     7.314000000     3.558000000
H     0.296000000     5.812000000     3.502000000
O     3.420000000     3.693000000     2.774000000
H     2.526000000     3.888000000     2.494000000
H     3.881000000     4.529000000     2.705000000
O     2.965000000     5.364000000    -1.984000000
H     2.371000000     5.021000000    -1.317000000
H     3.837000000     5.105000000    -1.684000000
