201
-1229.50994
C     2.547000000     0.022000000     4.628000000
H     3.256000000    -0.789000000     4.484000000
C     1.150000000    -0.035000000     4.428000000
C     0.395000000     1.060000000     4.781000000
H    -0.683000000     0.980000000     4.668000000
C     0.491000000    -1.326000000     3.878000000
O     1.334000000    -2.527000000     3.810000000
H     0.259000000    -1.103000000     2.826000000
O    -0.690000000    -1.683000000     4.523000000
C    -1.856000000    -1.969000000     3.775000000
C    -2.698000000    -0.918000000     3.573000000
H    -2.470000000     0.067000000     3.972000000
C    -3.697000000    -0.997000000     2.627000000
O    -4.357000000     0.137000000     2.366000000
C    -3.955000000    -2.307000000     2.024000000
C    -4.988000000    -2.322000000     0.927000000
H    -5.411000000    -3.320000000     0.792000000
C    -4.391000000    -1.710000000    -0.425000000
C    -3.931000000    -2.596000000    -1.386000000
H    -3.993000000    -3.653000000    -1.142000000
H    -5.857000000    -1.773000000     1.296000000
C    -3.060000000    -3.324000000     2.323000000
H    -3.184000000    -4.326000000     1.922000000
C    -1.988000000    -3.178000000     3.163000000
C    -0.987000000    -4.263000000     3.495000000
H    -1.438000000    -5.255000000     3.576000000
H    -0.658000000    -4.136000000     4.528000000
C     0.219000000    -4.174000000     2.482000000
C     0.173000000    -4.852000000     1.271000000
H    -0.728000000    -5.436000000     1.101000000
C     1.286000000    -3.369000000     2.700000000
C     2.415000000    -3.430000000     1.891000000
H     3.190000000    -2.716000000     2.159000000
C     2.360000000    -4.085000000     0.688000000
O     3.341000000    -3.852000000    -0.171000000
C     3.096000000    -2.942000000    -1.234000000
C     4.264000000    -2.014000000    -1.436000000
C     4.552000000    -1.395000000    -2.683000000
H     4.061000000    -1.812000000    -3.558000000
C     4.864000000    -1.468000000    -0.292000000
H     4.503000000    -1.755000000     0.693000000
O     2.714000000    -3.606000000    -2.476000000
H     2.242000000    -2.317000000    -0.933000000
C     1.217000000    -4.758000000     0.328000000
C     0.975000000    -5.390000000    -1.033000000
H     0.344000000    -6.264000000    -0.861000000
H     1.863000000    -5.981000000    -1.266000000
C     0.511000000    -4.458000000    -2.112000000
C    -0.799000000    -4.406000000    -2.456000000
H    -1.481000000    -4.975000000    -1.830000000
C     1.392000000    -3.582000000    -2.800000000
C     0.931000000    -2.764000000    -3.828000000
H     1.613000000    -2.041000000    -4.268000000
C    -0.420000000    -2.614000000    -4.033000000
O    -0.901000000    -1.522000000    -4.720000000
C    -1.374000000    -0.392000000    -4.069000000
C    -0.748000000     0.871000000    -4.701000000
C     0.407000000     0.830000000    -5.495000000
H     0.881000000    -0.138000000    -5.631000000
C    -1.357000000     2.127000000    -4.460000000
H    -2.268000000     2.079000000    -3.869000000
O    -2.879000000    -0.319000000    -3.966000000
H    -0.873000000    -0.482000000    -3.093000000
C    -1.329000000    -3.458000000    -3.359000000
C    -2.833000000    -3.258000000    -3.555000000
H    -3.389000000    -4.195000000    -3.490000000
H    -3.127000000    -2.978000000    -4.569000000
C    -3.450000000    -2.196000000    -2.617000000
C    -3.425000000    -0.844000000    -2.828000000
C    -3.909000000     0.063000000    -1.877000000
H    -3.891000000     1.132000000    -2.072000000
C    -4.480000000    -0.344000000    -0.726000000
O    -4.907000000     0.576000000     0.197000000
C    -3.990000000     0.981000000     1.260000000
H    -2.949000000     0.716000000     1.026000000
C    -4.014000000     2.472000000     1.521000000
C    -4.063000000     2.935000000     2.779000000
H    -4.178000000     2.227000000     3.596000000
C    -3.912000000     3.364000000     0.390000000
H    -3.829000000     2.987000000    -0.626000000
C    -3.844000000     4.752000000     0.597000000
O    -3.609000000     5.607000000    -0.508000000
C    -3.841000000     5.268000000     1.929000000
H    -3.750000000     6.345000000     2.045000000
C    -4.031000000     4.377000000     3.027000000
O    -4.136000000     4.742000000     4.345000000
C    -3.275000000     4.233000000     5.298000000
C    -1.929000000     4.047000000     5.016000000
H    -1.391000000     4.303000000     4.107000000
C    -3.735000000     3.985000000     6.574000000
H    -4.786000000     4.227000000     6.709000000
C    -2.897000000     3.577000000     7.600000000
H    -3.231000000     3.184000000     8.557000000
C    -1.586000000     3.159000000     7.260000000
H    -0.929000000     2.885000000     8.081000000
C    -1.129000000     3.430000000     5.987000000
O     0.262000000     3.316000000     5.703000000
C     0.932000000     2.160000000     5.387000000
C     2.306000000     2.313000000     5.461000000
H     2.721000000     3.253000000     5.812000000
C     3.093000000     1.231000000     5.088000000
O     4.500000000     1.352000000     5.067000000
C     5.318000000     0.634000000     4.223000000
C     5.262000000     0.799000000     2.845000000
H     4.615000000     1.561000000     2.418000000
C     6.237000000    -0.271000000     4.826000000
H     6.220000000    -0.400000000     5.905000000
C     7.131000000    -0.988000000     4.002000000
H     7.824000000    -1.719000000     4.412000000
C     7.007000000    -0.804000000     2.585000000
H     7.723000000    -1.350000000     1.976000000
C     6.111000000     0.088000000     2.058000000
O     6.178000000     0.332000000     0.722000000
C     5.688000000    -0.347000000    -0.400000000
C     6.046000000     0.136000000    -1.623000000
H     6.899000000     0.809000000    -1.672000000
C     5.522000000    -0.411000000    -2.794000000
O     5.822000000     0.148000000    -3.967000000
C     5.017000000     0.026000000    -5.151000000
C     4.035000000     0.946000000    -5.324000000
H     3.810000000     1.685000000    -4.559000000
C     5.232000000    -0.954000000    -6.104000000
H     6.034000000    -1.687000000    -6.080000000
C     4.548000000    -1.012000000    -7.272000000
H     4.841000000    -1.689000000    -8.070000000
C     3.589000000    -0.016000000    -7.449000000
H     2.980000000     0.008000000    -8.350000000
C     3.250000000     0.927000000    -6.450000000
O     2.295000000     1.909000000    -6.694000000
C     1.045000000     1.964000000    -5.981000000
C     0.409000000     3.224000000    -5.624000000
H     0.875000000     4.136000000    -5.989000000
C    -0.744000000     3.282000000    -4.858000000
O    -1.294000000     4.492000000    -4.549000000
C    -2.435000000     4.714000000    -3.887000000
C    -3.638000000     4.328000000    -4.418000000
H    -3.560000000     3.953000000    -5.436000000
C    -4.812000000     4.404000000    -3.771000000
H    -5.719000000     3.983000000    -4.198000000
C    -4.842000000     4.873000000    -2.460000000
H    -5.810000000     5.026000000    -1.988000000
C    -3.626000000     5.312000000    -1.846000000
C    -2.415000000     5.201000000    -2.563000000
H    -1.485000000     5.428000000    -2.049000000
O     0.829000000     6.764000000    -2.725000000
H     1.486000000     6.095000000    -2.919000000
H     0.384000000     6.911000000    -3.559000000
O     8.305000000     2.557000000     3.762000000
H     9.014000000     1.946000000     3.561000000
H     7.592000000     2.296000000     3.178000000
O     3.950000000     6.364000000     0.478000000
H     3.267000000     5.762000000     0.776000000
H     4.754000000     6.030000000     0.875000000
O     0.559000000     7.007000000     5.612000000
H     0.151000000     6.542000000     6.343000000
H    -0.144000000     7.105000000     4.970000000
O    -0.736000000     7.840000000    -0.230000000
H    -0.278000000     8.461000000     0.337000000
H    -0.087000000     7.595000000    -0.889000000
O     4.906000000     4.640000000    -1.960000000
H     4.312000000     5.090000000    -2.561000000
H     4.373000000     4.460000000    -1.186000000
O     6.855000000     6.734000000    -0.418000000
H     6.757000000     5.793000000    -0.565000000
H     6.120000000     7.127000000    -0.889000000
O     2.369000000     5.033000000    -3.892000000
H     1.910000000     4.194000000    -3.851000000
H     3.130000000     4.862000000    -4.448000000
O     6.231000000     4.142000000     1.386000000
H     5.429000000     3.761000000     1.028000000
H     6.062000000     4.217000000     2.325000000
O    -1.462000000     7.184000000     3.888000000
H    -0.891000000     6.514000000     3.510000000
H    -1.949000000     7.532000000     3.142000000
O     3.191000000     9.598000000     0.908000000
H     3.587000000     8.764000000     0.655000000
H     3.467000000    10.211000000     0.226000000
O     4.851000000     8.227000000    -2.170000000
H     4.413000000     9.014000000    -2.495000000
H     4.142000000     7.681000000    -1.830000000
O     6.714000000     7.015000000     2.357000000
H     7.091000000     6.413000000     2.999000000
H     6.976000000     6.656000000     1.509000000
O     8.935000000     1.418000000     0.570000000
H     7.984000000     1.320000000     0.626000000
H     9.065000000     2.174000000    -0.001000000
O     2.813000000     5.808000000     4.001000000
H     2.859000000     5.389000000     3.142000000
H     1.878000000     5.955000000     4.146000000
O    -0.292000000     5.619000000     1.669000000
H    -0.439000000     6.080000000     0.843000000
H     0.527000000     5.142000000     1.534000000
O     3.837000000     5.717000000     6.547000000
H     3.383000000     5.789000000     5.707000000
H     3.137000000     5.727000000     7.199000000
O     6.584000000     2.931000000    -3.297000000
H     5.896000000     3.234000000    -2.703000000
H     6.521000000     1.976000000    -3.268000000
O     4.997000000     4.109000000     3.955000000
H     4.535000000     3.395000000     4.394000000
H     4.344000000     4.803000000     3.874000000
