201
-1217.46341
C     2.443000000    -0.422000000     4.618000000
H     3.248000000    -1.063000000     4.268000000
C     1.091000000    -0.733000000     4.418000000
C     0.144000000     0.180000000     4.877000000
H    -0.928000000     0.008000000     4.831000000
C     0.669000000    -2.032000000     3.732000000
O     1.682000000    -3.055000000     3.708000000
H     0.505000000    -1.614000000     2.727000000
O    -0.653000000    -2.510000000     4.167000000
C    -1.584000000    -2.892000000     3.214000000
C    -2.764000000    -2.072000000     3.111000000
H    -2.933000000    -1.221000000     3.765000000
C    -3.588000000    -2.181000000     2.038000000
O    -4.522000000    -1.245000000     1.870000000
C    -3.401000000    -3.314000000     1.136000000
C    -4.315000000    -3.510000000    -0.045000000
H    -4.451000000    -4.563000000    -0.298000000
C    -3.915000000    -2.585000000    -1.242000000
C    -2.983000000    -3.134000000    -2.149000000
H    -2.604000000    -4.146000000    -2.030000000
H    -5.334000000    -3.372000000     0.322000000
C    -2.338000000    -4.210000000     1.266000000
H    -2.229000000    -5.014000000     0.544000000
C    -1.357000000    -3.931000000     2.303000000
C    -0.180000000    -4.865000000     2.483000000
H    -0.548000000    -5.856000000     2.211000000
H    -0.094000000    -4.952000000     3.568000000
C     1.050000000    -4.522000000     1.868000000
C     1.230000000    -4.923000000     0.522000000
H     0.485000000    -5.494000000    -0.025000000
C     1.914000000    -3.675000000     2.470000000
C     3.044000000    -3.261000000     1.767000000
H     3.798000000    -2.624000000     2.222000000
C     3.245000000    -3.683000000     0.473000000
O     4.167000000    -2.965000000    -0.224000000
C     3.730000000    -1.869000000    -1.054000000
C     4.598000000    -0.577000000    -0.839000000
C     4.686000000     0.423000000    -1.887000000
H     4.126000000     0.364000000    -2.817000000
C     5.397000000    -0.370000000     0.277000000
H     5.309000000    -1.083000000     1.093000000
O     3.688000000    -2.185000000    -2.423000000
H     2.760000000    -1.557000000    -0.640000000
C     2.357000000    -4.540000000    -0.176000000
C     2.388000000    -4.805000000    -1.688000000
H     1.839000000    -5.727000000    -1.890000000
H     3.371000000    -5.020000000    -2.113000000
C     1.784000000    -3.749000000    -2.611000000
C     0.472000000    -3.833000000    -2.998000000
H    -0.063000000    -4.738000000    -2.723000000
C     2.464000000    -2.528000000    -2.926000000
C     1.792000000    -1.538000000    -3.668000000
H     2.386000000    -0.634000000    -3.775000000
C     0.488000000    -1.717000000    -4.017000000
O    -0.098000000    -0.682000000    -4.645000000
C    -0.942000000     0.237000000    -3.880000000
C    -0.806000000     1.647000000    -4.332000000
C     0.479000000     2.146000000    -4.741000000
H     1.292000000     1.428000000    -4.817000000
C    -1.861000000     2.548000000    -4.121000000
H    -2.837000000     2.312000000    -3.703000000
O    -2.301000000    -0.093000000    -4.159000000
H    -0.760000000     0.276000000    -2.795000000
C    -0.237000000    -2.821000000    -3.707000000
C    -1.608000000    -2.926000000    -4.206000000
H    -1.913000000    -3.969000000    -4.310000000
H    -1.632000000    -2.422000000    -5.175000000
C    -2.570000000    -2.366000000    -3.211000000
C    -2.867000000    -0.986000000    -3.234000000
C    -3.808000000    -0.466000000    -2.335000000
H    -4.049000000     0.581000000    -2.499000000
C    -4.279000000    -1.283000000    -1.346000000
O    -4.986000000    -0.631000000    -0.376000000
C    -4.287000000    -0.211000000     0.828000000
H    -3.204000000    -0.269000000     0.642000000
C    -4.817000000     1.222000000     1.214000000
C    -4.779000000     1.641000000     2.574000000
H    -4.486000000     0.881000000     3.294000000
C    -5.159000000     2.189000000     0.231000000
H    -5.178000000     1.907000000    -0.819000000
C    -5.430000000     3.531000000     0.628000000
O    -5.872000000     4.327000000    -0.492000000
C    -5.381000000     3.895000000     1.949000000
H    -5.419000000     4.914000000     2.325000000
C    -4.991000000     2.953000000     2.861000000
O    -4.701000000     3.400000000     4.121000000
C    -3.906000000     2.748000000     5.048000000
C    -2.547000000     2.967000000     5.006000000
H    -2.090000000     3.660000000     4.305000000
C    -4.421000000     1.896000000     5.981000000
H    -5.505000000     1.826000000     6.021000000
C    -3.563000000     1.209000000     6.873000000
H    -4.031000000     0.478000000     7.527000000
C    -2.201000000     1.353000000     6.764000000
H    -1.653000000     0.646000000     7.381000000
C    -1.705000000     2.250000000     5.791000000
O    -0.337000000     2.505000000     5.688000000
C     0.559000000     1.484000000     5.359000000
C     1.906000000     1.720000000     5.518000000
H     2.173000000     2.628000000     6.054000000
C     2.891000000     0.750000000     5.229000000
O     4.212000000     0.998000000     5.450000000
C     5.308000000     0.447000000     4.748000000
C     5.551000000     0.900000000     3.434000000
H     4.842000000     1.567000000     2.950000000
C     6.115000000    -0.499000000     5.368000000
H     6.023000000    -0.790000000     6.411000000
C     7.132000000    -0.998000000     4.565000000
H     7.689000000    -1.805000000     5.035000000
C     7.426000000    -0.601000000     3.295000000
H     8.302000000    -0.860000000     2.704000000
C     6.582000000     0.287000000     2.731000000
O     7.013000000     0.864000000     1.554000000
C     6.296000000     0.712000000     0.366000000
C     6.365000000     1.631000000    -0.677000000
H     6.949000000     2.541000000    -0.569000000
C     5.534000000     1.508000000    -1.781000000
O     5.632000000     2.347000000    -2.848000000
C     4.879000000     2.396000000    -3.975000000
C     3.698000000     3.162000000    -4.060000000
H     3.446000000     3.697000000    -3.148000000
C     5.278000000     1.630000000    -5.101000000
H     6.073000000     0.903000000    -4.958000000
C     4.491000000     1.648000000    -6.245000000
H     4.666000000     0.890000000    -7.004000000
C     3.430000000     2.487000000    -6.360000000
H     2.792000000     2.525000000    -7.238000000
C     2.982000000     3.216000000    -5.289000000
O     1.828000000     3.994000000    -5.401000000
C     0.612000000     3.524000000    -4.948000000
C    -0.441000000     4.431000000    -4.710000000
H    -0.324000000     5.510000000    -4.779000000
C    -1.662000000     3.935000000    -4.243000000
O    -2.624000000     4.910000000    -3.943000000
C    -3.920000000     4.709000000    -3.541000000
C    -4.896000000     4.362000000    -4.554000000
H    -4.674000000     4.337000000    -5.618000000
C    -6.172000000     4.028000000    -4.117000000
H    -7.025000000     3.890000000    -4.777000000
C    -6.458000000     4.022000000    -2.705000000
H    -7.478000000     3.756000000    -2.439000000
C    -5.476000000     4.297000000    -1.784000000
C    -4.192000000     4.655000000    -2.207000000
H    -3.395000000     4.923000000    -1.518000000
O    -2.572000000     8.527000000    -1.791000000
H    -2.255000000     8.236000000    -0.936000000
H    -3.504000000     8.310000000    -1.787000000
O    -1.932000000    11.371000000    -1.261000000
H    -1.539000000    11.603000000    -0.419000000
H    -2.252000000    10.477000000    -1.138000000
O     1.201000000     9.948000000    -3.008000000
H     1.943000000     9.976000000    -2.404000000
H     0.777000000     9.109000000    -2.827000000
O     2.287000000     2.073000000     2.074000000
H     2.005000000     1.587000000     2.849000000
H     1.480000000     2.232000000     1.585000000
O     0.167000000     6.099000000     5.986000000
H    -0.552000000     5.675000000     6.455000000
H     0.637000000     5.378000000     5.566000000
O    -2.194000000     6.967000000     3.861000000
H    -2.680000000     6.411000000     3.253000000
H    -2.142000000     7.815000000     3.421000000
O    -5.094000000     7.757000000    -1.621000000
H    -6.030000000     7.813000000    -1.429000000
H    -5.054000000     7.488000000    -2.539000000
O    -2.690000000     9.439000000     2.954000000
H    -3.345000000    10.062000000     2.638000000
H    -2.084000000     9.337000000     2.220000000
O     2.253000000     8.111000000     0.436000000
H     1.846000000     7.309000000     0.106000000
H     3.007000000     8.250000000    -0.137000000
O     0.041000000     5.255000000     3.082000000
H    -0.114000000     5.522000000     2.176000000
H    -0.665000000     5.670000000     3.578000000
O     4.704000000     3.522000000     0.973000000
H     3.881000000     3.161000000     1.303000000
H     4.452000000     4.025000000     0.199000000
O    -1.110000000     8.206000000     0.761000000
H    -0.259000000     8.644000000     0.741000000
H    -0.900000000     7.273000000     0.709000000
O     2.022000000     7.278000000    -4.282000000
H     2.763000000     7.568000000    -3.749000000
H     1.345000000     7.049000000    -3.645000000
O     1.830000000    10.398000000     1.924000000
H     1.667000000    10.912000000     1.133000000
H     1.982000000     9.508000000     1.605000000
O    -3.034000000     5.654000000     1.541000000
H    -2.189000000     5.629000000     1.093000000
H    -3.670000000     5.417000000     0.866000000
O     0.192000000     7.404000000    -2.454000000
H    -0.750000000     7.233000000    -2.431000000
H     0.533000000     6.965000000    -1.675000000
O     2.412000000     4.647000000     4.007000000
H     1.603000000     4.942000000     3.589000000
H     2.841000000     4.105000000     3.346000000
O     3.441000000     4.982000000    -1.089000000
H     3.771000000     5.876000000    -1.179000000
H     2.494000000     5.084000000    -0.996000000
O     3.868000000     8.250000000    -1.879000000
H     3.980000000     9.181000000    -1.689000000
H     4.714000000     7.975000000    -2.233000000
