201
-1265.48105
C     2.296000000    -0.522000000     4.891000000
H     2.923000000    -1.296000000     4.455000000
C     0.880000000    -0.596000000     4.664000000
C     0.082000000     0.367000000     5.188000000
H    -0.989000000     0.185000000     5.141000000
C     0.352000000    -1.709000000     3.791000000
O     1.203000000    -2.935000000     3.714000000
H     0.180000000    -1.309000000     2.781000000
O    -0.910000000    -2.149000000     4.287000000
C    -1.887000000    -2.484000000     3.389000000
C    -2.874000000    -1.509000000     3.164000000
H    -2.861000000    -0.670000000     3.854000000
C    -3.846000000    -1.638000000     2.197000000
O    -4.724000000    -0.588000000     1.969000000
C    -3.785000000    -2.775000000     1.390000000
C    -4.800000000    -2.845000000     0.161000000
H    -5.112000000    -3.884000000     0.033000000
C    -4.182000000    -2.209000000    -1.079000000
C    -3.500000000    -3.031000000    -1.993000000
H    -3.279000000    -4.052000000    -1.691000000
H    -5.640000000    -2.273000000     0.559000000
C    -2.842000000    -3.767000000     1.570000000
H    -2.927000000    -4.570000000     0.842000000
C    -1.835000000    -3.638000000     2.620000000
C    -0.832000000    -4.729000000     2.812000000
H    -1.241000000    -5.619000000     2.330000000
H    -0.532000000    -5.051000000     3.811000000
C     0.418000000    -4.453000000     2.067000000
C     0.488000000    -4.854000000     0.726000000
H    -0.274000000    -5.506000000     0.307000000
C     1.341000000    -3.542000000     2.541000000
C     2.414000000    -3.146000000     1.794000000
H     3.072000000    -2.343000000     2.115000000
C     2.642000000    -3.751000000     0.588000000
O     3.685000000    -3.252000000    -0.137000000
C     3.360000000    -2.231000000    -1.133000000
C     4.276000000    -0.984000000    -0.975000000
C     4.603000000    -0.201000000    -2.136000000
H     4.204000000    -0.455000000    -3.115000000
C     4.865000000    -0.655000000     0.264000000
H     4.741000000    -1.269000000     1.152000000
O     3.339000000    -2.769000000    -2.450000000
H     2.378000000    -1.811000000    -0.871000000
C     1.661000000    -4.556000000    -0.013000000
C     1.837000000    -5.030000000    -1.445000000
H     1.283000000    -5.953000000    -1.631000000
H     2.882000000    -5.234000000    -1.687000000
C     1.271000000    -4.018000000    -2.443000000
C    -0.072000000    -4.122000000    -2.796000000
H    -0.614000000    -4.951000000    -2.347000000
C     2.072000000    -3.012000000    -2.955000000
C     1.567000000    -2.174000000    -3.932000000
H     2.091000000    -1.260000000    -4.200000000
C     0.211000000    -2.257000000    -4.319000000
O    -0.261000000    -1.262000000    -5.107000000
C    -1.052000000    -0.295000000    -4.342000000
C    -0.812000000     1.135000000    -4.928000000
C     0.500000000     1.536000000    -5.146000000
H     1.263000000     0.779000000    -4.986000000
C    -1.799000000     2.111000000    -4.957000000
H    -2.804000000     1.847000000    -4.637000000
O    -2.448000000    -0.657000000    -4.500000000
H    -0.690000000    -0.317000000    -3.304000000
C    -0.592000000    -3.226000000    -3.728000000
C    -2.059000000    -3.377000000    -4.049000000
H    -2.287000000    -4.423000000    -3.836000000
H    -2.341000000    -3.210000000    -5.090000000
C    -2.902000000    -2.467000000    -3.124000000
C    -3.049000000    -1.085000000    -3.381000000
C    -3.828000000    -0.273000000    -2.498000000
H    -4.013000000     0.788000000    -2.649000000
C    -4.317000000    -0.816000000    -1.321000000
O    -4.941000000    -0.009000000    -0.334000000
C    -4.192000000     0.237000000     0.864000000
H    -3.167000000    -0.102000000     0.654000000
C    -4.077000000     1.682000000     1.207000000
C    -3.945000000     2.127000000     2.527000000
H    -4.037000000     1.371000000     3.303000000
C    -3.841000000     2.556000000     0.093000000
H    -3.813000000     2.164000000    -0.921000000
C    -3.678000000     3.910000000     0.317000000
O    -3.459000000     4.766000000    -0.722000000
C    -3.560000000     4.344000000     1.623000000
H    -3.419000000     5.416000000     1.736000000
C    -3.629000000     3.501000000     2.752000000
O    -3.635000000     4.129000000     4.000000000
C    -3.337000000     3.445000000     5.130000000
C    -2.019000000     3.027000000     5.295000000
H    -1.303000000     3.183000000     4.492000000
C    -4.221000000     3.282000000     6.191000000
H    -5.256000000     3.516000000     5.955000000
C    -3.818000000     2.855000000     7.419000000
H    -4.428000000     2.842000000     8.319000000
C    -2.486000000     2.397000000     7.529000000
H    -2.216000000     1.934000000     8.474000000
C    -1.561000000     2.509000000     6.493000000
O    -0.201000000     2.252000000     6.756000000
C     0.638000000     1.454000000     5.955000000
C     2.002000000     1.537000000     6.144000000
H     2.515000000     2.280000000     6.750000000
C     2.835000000     0.565000000     5.604000000
O     4.226000000     0.639000000     5.805000000
C     5.244000000     0.197000000     4.959000000
C     5.217000000     0.443000000     3.601000000
H     4.445000000     1.100000000     3.207000000
C     6.229000000    -0.676000000     5.465000000
H     6.221000000    -0.957000000     6.515000000
C     7.197000000    -1.182000000     4.649000000
H     8.042000000    -1.775000000     4.990000000
C     7.226000000    -0.759000000     3.320000000
H     8.117000000    -1.089000000     2.791000000
C     6.244000000     0.014000000     2.768000000
O     6.431000000     0.548000000     1.586000000
C     5.749000000     0.389000000     0.398000000
C     5.926000000     1.225000000    -0.708000000
H     6.593000000     2.068000000    -0.550000000
C     5.428000000     0.927000000    -2.042000000
O     5.781000000     1.655000000    -3.167000000
C     5.046000000     1.697000000    -4.326000000
C     3.986000000     2.614000000    -4.386000000
H     3.814000000     3.403000000    -3.658000000
C     5.287000000     0.758000000    -5.343000000
H     6.128000000     0.073000000    -5.272000000
C     4.605000000     0.844000000    -6.537000000
H     4.935000000     0.256000000    -7.390000000
C     3.475000000     1.736000000    -6.596000000
H     2.753000000     1.607000000    -7.399000000
C     3.145000000     2.572000000    -5.517000000
O     2.128000000     3.429000000    -5.538000000
C     0.791000000     2.867000000    -5.477000000
C    -0.226000000     3.819000000    -5.700000000
H    -0.020000000     4.814000000    -6.088000000
C    -1.529000000     3.463000000    -5.352000000
O    -2.512000000     4.441000000    -5.339000000
C    -3.446000000     4.563000000    -4.314000000
C    -4.729000000     4.853000000    -4.637000000
H    -4.899000000     5.031000000    -5.696000000
C    -5.676000000     5.055000000    -3.600000000
H    -6.681000000     5.400000000    -3.826000000
C    -5.271000000     4.748000000    -2.296000000
H    -5.881000000     4.819000000    -1.399000000
C    -3.907000000     4.535000000    -2.006000000
C    -3.026000000     4.444000000    -3.009000000
H    -1.976000000     4.572000000    -2.760000000
O     0.874000000     9.782000000     0.482000000
H     1.631000000     9.375000000     0.903000000
H     0.278000000     9.054000000     0.306000000
O    -3.315000000     7.167000000     4.051000000
H    -3.245000000     7.207000000     5.005000000
H    -2.420000000     7.299000000     3.740000000
O     1.269000000     9.360000000    -2.420000000
H     2.154000000     9.724000000    -2.389000000
H     0.982000000     9.351000000    -1.507000000
O     3.564000000     2.614000000     1.016000000
H     2.810000000     2.052000000     0.835000000
H     3.493000000     3.323000000     0.377000000
O     1.036000000     5.103000000     6.317000000
H     1.033000000     5.167000000     5.362000000
H     0.664000000     4.240000000     6.500000000
O     2.850000000     7.490000000     0.743000000
H     2.211000000     6.790000000     0.873000000
H     3.473000000     7.132000000     0.111000000
O     1.169000000     5.784000000     3.788000000
H     0.992000000     5.783000000     2.848000000
H     1.241000000     6.710000000     4.018000000
O     5.721000000     4.106000000     1.748000000
H     5.628000000     4.315000000     2.678000000
H     5.053000000     3.440000000     1.584000000
O    -2.089000000     7.392000000    -1.519000000
H    -2.692000000     6.658000000    -1.636000000
H    -1.497000000     7.338000000    -2.270000000
O    -2.033000000     7.925000000    -4.507000000
H    -1.148000000     7.694000000    -4.223000000
H    -2.128000000     7.505000000    -5.361000000
O     4.718000000     8.631000000     2.267000000
H     4.944000000     9.039000000     1.431000000
H     3.949000000     8.095000000     2.072000000
O    -1.254000000     7.821000000     1.086000000
H    -0.616000000     7.111000000     1.016000000
H    -1.609000000     7.912000000     0.201000000
O    -3.099000000    10.040000000    -1.662000000
H    -3.848000000     9.793000000    -2.205000000
H    -2.635000000     9.218000000    -1.505000000
O     0.073000000     6.954000000    -2.982000000
H     0.397000000     6.471000000    -2.221000000
H     0.574000000     7.770000000    -2.978000000
O     1.101000000     8.652000000     3.696000000
H     1.587000000     9.132000000     4.367000000
H     0.249000000     9.086000000     3.661000000
O     3.111000000     3.793000000     3.907000000
H     2.488000000     4.518000000     3.953000000
H     2.904000000     3.351000000     3.083000000
O    -1.366000000     9.256000000     3.248000000
H    -2.321000000     9.319000000     3.234000000
H    -1.135000000     8.932000000     2.377000000
O     3.648000000     4.497000000    -0.941000000
H     4.276000000     5.184000000    -1.165000000
H     2.793000000     4.884000000    -1.131000000
O     4.581000000     7.059000000    -1.478000000
H     4.143000000     7.824000000    -1.852000000
H     5.511000000     7.210000000    -1.646000000
