201
-1254.58756
C     2.934000000    -0.323000000     4.177000000
H     3.631000000    -0.771000000     3.474000000
C     1.565000000    -0.654000000     4.316000000
C     0.649000000     0.177000000     5.051000000
H    -0.401000000    -0.083000000     5.156000000
C     0.909000000    -1.829000000     3.571000000
O     1.911000000    -2.835000000     3.310000000
H     0.628000000    -1.464000000     2.572000000
O    -0.285000000    -2.411000000     4.254000000
C    -1.282000000    -2.761000000     3.358000000
C    -2.371000000    -1.919000000     3.245000000
H    -2.494000000    -1.037000000     3.869000000
C    -3.381000000    -2.200000000     2.381000000
O    -4.270000000    -1.211000000     2.209000000
C    -3.231000000    -3.247000000     1.439000000
C    -4.218000000    -3.438000000     0.339000000
H    -4.325000000    -4.468000000    -0.006000000
C    -3.956000000    -2.637000000    -0.867000000
C    -3.315000000    -3.246000000    -1.907000000
H    -3.187000000    -4.324000000    -1.870000000
H    -5.237000000    -3.257000000     0.686000000
C    -2.158000000    -4.087000000     1.533000000
H    -2.194000000    -4.932000000     0.850000000
C    -1.099000000    -3.814000000     2.472000000
C    -0.016000000    -4.844000000     2.552000000
H    -0.421000000    -5.810000000     2.245000000
H     0.425000000    -5.000000000     3.539000000
C     1.104000000    -4.413000000     1.726000000
C     1.226000000    -4.959000000     0.439000000
H     0.479000000    -5.661000000     0.078000000
C     1.961000000    -3.399000000     2.090000000
C     2.967000000    -2.938000000     1.223000000
H     3.641000000    -2.159000000     1.567000000
C     3.012000000    -3.374000000    -0.093000000
O     3.937000000    -2.835000000    -0.950000000
C     3.498000000    -1.676000000    -1.643000000
C     4.503000000    -0.547000000    -1.590000000
C     4.404000000     0.529000000    -2.433000000
H     3.579000000     0.598000000    -3.136000000
C     5.423000000    -0.435000000    -0.529000000
H     5.358000000    -1.222000000     0.218000000
O     3.286000000    -2.121000000    -2.988000000
H     2.541000000    -1.314000000    -1.239000000
C     2.110000000    -4.411000000    -0.514000000
C     2.069000000    -4.720000000    -2.000000000
H     1.601000000    -5.706000000    -2.044000000
H     3.075000000    -4.909000000    -2.380000000
C     1.392000000    -3.680000000    -2.882000000
C     0.057000000    -3.881000000    -3.275000000
H    -0.341000000    -4.827000000    -2.917000000
C     2.034000000    -2.503000000    -3.364000000
C     1.360000000    -1.608000000    -4.128000000
H     1.842000000    -0.703000000    -4.489000000
C     0.045000000    -1.775000000    -4.377000000
O    -0.670000000    -0.731000000    -4.960000000
C    -1.510000000     0.080000000    -4.118000000
C    -1.394000000     1.553000000    -4.461000000
C    -0.169000000     2.033000000    -4.916000000
H     0.614000000     1.318000000    -5.155000000
C    -2.438000000     2.512000000    -4.198000000
H    -3.408000000     2.132000000    -3.886000000
O    -2.854000000    -0.426000000    -4.187000000
H    -1.089000000    -0.043000000    -3.109000000
C    -0.637000000    -2.957000000    -3.999000000
C    -2.121000000    -3.194000000    -4.122000000
H    -2.247000000    -4.276000000    -4.049000000
H    -2.476000000    -3.077000000    -5.148000000
C    -2.955000000    -2.493000000    -3.045000000
C    -3.279000000    -1.142000000    -3.085000000
C    -4.021000000    -0.498000000    -2.066000000
H    -4.338000000     0.532000000    -2.212000000
C    -4.405000000    -1.285000000    -0.989000000
O    -5.011000000    -0.635000000     0.071000000
C    -4.132000000    -0.245000000     1.177000000
H    -3.091000000    -0.319000000     0.829000000
C    -4.335000000     1.144000000     1.690000000
C    -4.076000000     1.478000000     2.994000000
H    -3.789000000     0.662000000     3.652000000
C    -4.693000000     2.194000000     0.827000000
H    -4.791000000     1.885000000    -0.211000000
C    -4.940000000     3.490000000     1.312000000
O    -5.469000000     4.468000000     0.467000000
C    -4.691000000     3.779000000     2.615000000
H    -4.758000000     4.824000000     2.908000000
C    -4.250000000     2.789000000     3.502000000
O    -3.896000000     3.200000000     4.787000000
C    -3.170000000     2.476000000     5.716000000
C    -1.800000000     2.707000000     5.725000000
H    -1.288000000     3.509000000     5.200000000
C    -3.805000000     1.545000000     6.594000000
H    -4.888000000     1.477000000     6.529000000
C    -2.997000000     0.851000000     7.508000000
H    -3.402000000     0.110000000     8.192000000
C    -1.636000000     1.090000000     7.559000000
H    -0.982000000     0.476000000     8.175000000
C    -1.048000000     1.969000000     6.601000000
O     0.364000000     2.081000000     6.534000000
C     1.161000000     1.290000000     5.752000000
C     2.554000000     1.483000000     5.655000000
H     2.919000000     2.371000000     6.164000000
C     3.442000000     0.793000000     4.848000000
O     4.709000000     1.243000000     4.652000000
C     5.709000000     0.648000000     3.926000000
C     5.936000000     0.918000000     2.581000000
H     5.188000000     1.528000000     2.081000000
C     6.648000000    -0.113000000     4.592000000
H     6.443000000    -0.295000000     5.644000000
C     7.735000000    -0.649000000     3.978000000
H     8.470000000    -1.267000000     4.486000000
C     7.885000000    -0.461000000     2.586000000
H     8.695000000    -0.977000000     2.076000000
C     7.018000000     0.331000000     1.877000000
O     7.306000000     0.475000000     0.521000000
C     6.344000000     0.549000000    -0.450000000
C     6.180000000     1.683000000    -1.325000000
H     6.860000000     2.494000000    -1.077000000
C     5.231000000     1.632000000    -2.320000000
O     5.063000000     2.795000000    -3.152000000
C     4.347000000     2.701000000    -4.327000000
C     3.116000000     3.365000000    -4.407000000
H     2.824000000     3.990000000    -3.567000000
C     4.710000000     1.890000000    -5.396000000
H     5.632000000     1.315000000    -5.419000000
C     3.927000000     1.708000000    -6.533000000
H     4.154000000     0.880000000    -7.200000000
C     2.676000000     2.401000000    -6.640000000
H     2.005000000     2.213000000    -7.475000000
C     2.356000000     3.277000000    -5.631000000
O     1.150000000     3.839000000    -5.646000000
C     0.002000000     3.404000000    -5.090000000
C    -0.992000000     4.292000000    -4.745000000
H    -0.748000000     5.351000000    -4.773000000
C    -2.207000000     3.869000000    -4.245000000
O    -3.078000000     4.796000000    -3.684000000
C    -4.249000000     4.548000000    -2.981000000
C    -5.437000000     4.498000000    -3.697000000
H    -5.405000000     4.774000000    -4.748000000
C    -6.617000000     4.331000000    -2.968000000
H    -7.577000000     4.183000000    -3.455000000
C    -6.607000000     4.396000000    -1.607000000
H    -7.544000000     4.297000000    -1.065000000
C    -5.414000000     4.351000000    -0.885000000
C    -4.197000000     4.454000000    -1.579000000
H    -3.317000000     4.495000000    -0.942000000
O    -0.449000000    10.365000000    -1.019000000
H    -0.195000000    11.173000000    -0.572000000
H    -0.112000000     9.665000000    -0.459000000
O    -4.144000000     8.390000000     0.521000000
H    -4.181000000     9.253000000     0.109000000
H    -3.614000000     7.862000000    -0.075000000
O     2.445000000     0.211000000     0.625000000
H     2.624000000     0.729000000    -0.160000000
H     1.493000000     0.238000000     0.718000000
O    -0.150000000     5.761000000     4.124000000
H    -0.572000000     5.640000000     4.975000000
H    -0.837000000     6.125000000     3.566000000
O    -1.134000000     9.765000000     2.603000000
H    -0.803000000    10.545000000     2.157000000
H    -0.936000000     9.045000000     2.004000000
O     2.233000000     6.864000000     1.171000000
H     1.688000000     6.265000000     0.661000000
H     2.623000000     6.313000000     1.850000000
O    -2.101000000     6.602000000     2.395000000
H    -1.966000000     6.099000000     1.591000000
H    -2.972000000     6.985000000     2.294000000
O    -4.704000000     7.830000000    -2.869000000
H    -5.216000000     7.043000000    -2.685000000
H    -3.883000000     7.698000000    -2.395000000
O     2.736000000     2.865000000     2.611000000
H     2.491000000     1.963000000     2.405000000
H     2.858000000     3.281000000     1.758000000
O    -0.157000000     8.076000000     0.709000000
H     0.682000000     7.929000000     1.145000000
H    -0.310000000     7.275000000     0.208000000
O     2.295000000     5.287000000     3.539000000
H     2.503000000     4.372000000     3.348000000
H     1.339000000     5.315000000     3.565000000
O     3.201000000     7.895000000    -4.360000000
H     2.748000000     7.281000000    -3.782000000
H     4.130000000     7.730000000    -4.204000000
O    -0.464000000     7.872000000    -3.422000000
H     0.245000000     7.261000000    -3.222000000
H    -0.103000000     8.734000000    -3.212000000
O     4.015000000     8.720000000     1.826000000
H     3.772000000     9.338000000     1.137000000
H     3.482000000     7.944000000     1.651000000
O    -2.579000000     7.321000000    -1.441000000
H    -2.102000000     6.682000000    -0.912000000
H    -1.933000000     7.643000000    -2.070000000
O    -2.681000000     7.647000000    -5.416000000
H    -2.024000000     7.752000000    -4.728000000
H    -2.650000000     6.716000000    -5.638000000
O     2.591000000     6.717000000    -2.112000000
H     3.340000000     6.271000000    -1.716000000
H     1.839000000     6.425000000    -1.597000000
O     3.397000000     4.104000000     0.177000000
H     4.084000000     4.363000000    -0.437000000
H     2.584000000     4.389000000    -0.239000000
O     5.153000000     5.113000000    -1.787000000
H     5.770000000     5.650000000    -2.283000000
H     4.931000000     4.394000000    -2.380000000
