201
-1281.12354
C    -0.552000000    -0.343000000     5.102000000
H    -0.008000000    -1.250000000     5.350000000
C    -1.541000000    -0.384000000     4.111000000
C    -2.264000000     0.729000000     3.785000000
H    -2.905000000     0.682000000     2.909000000
C    -1.734000000    -1.668000000     3.340000000
O    -1.052000000    -2.797000000     3.918000000
H    -1.299000000    -1.521000000     2.340000000
O    -3.078000000    -2.077000000     3.253000000
C    -3.536000000    -2.413000000     2.004000000
C    -4.223000000    -1.504000000     1.260000000
H    -4.556000000    -0.569000000     1.705000000
C    -4.546000000    -1.708000000    -0.124000000
O    -5.029000000    -0.724000000    -0.917000000
C    -3.994000000    -2.850000000    -0.786000000
C    -4.060000000    -2.940000000    -2.322000000
H    -3.994000000    -3.967000000    -2.688000000
C    -2.858000000    -2.272000000    -2.981000000
C    -1.785000000    -3.064000000    -3.381000000
H    -1.880000000    -4.123000000    -3.154000000
H    -5.046000000    -2.541000000    -2.572000000
C    -3.340000000    -3.822000000    -0.055000000
H    -3.085000000    -4.767000000    -0.528000000
C    -3.019000000    -3.607000000     1.315000000
C    -2.256000000    -4.744000000     2.060000000
H    -2.511000000    -5.657000000     1.518000000
H    -2.816000000    -4.836000000     2.993000000
C    -0.800000000    -4.419000000     2.167000000
C     0.086000000    -4.977000000     1.218000000
H    -0.278000000    -5.723000000     0.517000000
C    -0.285000000    -3.567000000     3.094000000
C     1.049000000    -3.203000000     3.083000000
H     1.430000000    -2.541000000     3.856000000
C     1.877000000    -3.670000000     2.124000000
O     3.175000000    -3.281000000     2.067000000
C     3.490000000    -2.276000000     1.035000000
C     4.320000000    -1.130000000     1.625000000
C     4.821000000    -0.156000000     0.797000000
H     4.720000000    -0.144000000    -0.286000000
C     4.356000000    -1.002000000     2.994000000
H     3.908000000    -1.649000000     3.743000000
O     4.177000000    -2.763000000    -0.145000000
H     2.529000000    -1.825000000     0.747000000
C     1.384000000    -4.548000000     1.125000000
C     2.286000000    -5.037000000     0.030000000
H     2.046000000    -6.037000000    -0.335000000
H     3.250000000    -5.110000000     0.536000000
C     2.455000000    -4.129000000    -1.197000000
C     1.608000000    -4.266000000    -2.285000000
H     0.845000000    -5.033000000    -2.182000000
C     3.366000000    -3.104000000    -1.205000000
C     3.310000000    -2.100000000    -2.245000000
H     4.042000000    -1.299000000    -2.189000000
C     2.434000000    -2.224000000    -3.318000000
O     2.436000000    -1.227000000    -4.230000000
C     1.415000000    -0.239000000    -4.122000000
C     1.935000000     1.201000000    -4.385000000
C     3.222000000     1.604000000    -3.968000000
H     3.957000000     0.860000000    -3.673000000
C     1.060000000     2.219000000    -4.904000000
H     0.092000000     1.879000000    -5.265000000
O     0.296000000    -0.544000000    -5.019000000
H     1.043000000    -0.119000000    -3.094000000
C     1.528000000    -3.312000000    -3.308000000
C     0.459000000    -3.388000000    -4.411000000
H     0.133000000    -4.429000000    -4.477000000
H     0.913000000    -3.197000000    -5.386000000
C    -0.738000000    -2.519000000    -4.134000000
C    -0.810000000    -1.166000000    -4.423000000
C    -1.908000000    -0.376000000    -4.108000000
H    -1.966000000     0.684000000    -4.341000000
C    -2.918000000    -0.927000000    -3.316000000
O    -3.935000000    -0.094000000    -2.896000000
C    -4.055000000     0.222000000    -1.516000000
H    -3.094000000     0.013000000    -1.024000000
C    -4.511000000     1.693000000    -1.369000000
C    -5.073000000     2.123000000    -0.197000000
H    -5.366000000     1.413000000     0.572000000
C    -4.177000000     2.581000000    -2.443000000
H    -3.670000000     2.186000000    -3.320000000
C    -4.284000000     3.963000000    -2.195000000
O    -3.764000000     4.880000000    -3.074000000
C    -5.066000000     4.380000000    -1.085000000
H    -5.114000000     5.448000000    -0.886000000
C    -5.390000000     3.496000000    -0.088000000
O    -6.170000000     3.989000000     0.929000000
C    -5.789000000     3.636000000     2.238000000
C    -4.402000000     3.601000000     2.605000000
H    -3.716000000     3.947000000     1.837000000
C    -6.702000000     3.297000000     3.248000000
H    -7.782000000     3.323000000     3.123000000
C    -6.310000000     3.004000000     4.588000000
H    -6.981000000     2.721000000     5.395000000
C    -4.959000000     2.731000000     4.877000000
H    -4.716000000     2.510000000     5.913000000
C    -3.968000000     3.087000000     3.857000000
O    -2.615000000     3.146000000     4.207000000
C    -1.990000000     1.950000000     4.480000000
C    -0.977000000     1.988000000     5.478000000
H    -0.787000000     2.922000000     6.001000000
C    -0.273000000     0.821000000     5.760000000
O     0.693000000     1.039000000     6.786000000
C     2.006000000     0.490000000     6.783000000
C     2.903000000     0.690000000     5.708000000
H     2.742000000     1.331000000     4.845000000
C     2.400000000    -0.187000000     7.876000000
H     1.729000000    -0.384000000     8.708000000
C     3.686000000    -0.781000000     7.966000000
H     3.919000000    -1.291000000     8.898000000
C     4.550000000    -0.676000000     6.876000000
H     5.570000000    -1.005000000     7.059000000
C     4.205000000     0.016000000     5.774000000
O     5.205000000     0.225000000     4.868000000
C     5.011000000     0.177000000     3.497000000
C     5.671000000     1.048000000     2.719000000
H     6.145000000     1.864000000     3.258000000
C     5.519000000     0.908000000     1.358000000
O     6.133000000     1.875000000     0.557000000
C     6.312000000     1.767000000    -0.773000000
C     5.530000000     2.656000000    -1.542000000
H     4.894000000     3.384000000    -1.045000000
C     7.220000000     0.856000000    -1.356000000
H     7.841000000     0.157000000    -0.801000000
C     7.241000000     0.759000000    -2.719000000
H     7.893000000     0.069000000    -3.248000000
C     6.410000000     1.540000000    -3.512000000
H     6.373000000     1.405000000    -4.590000000
C     5.588000000     2.497000000    -2.930000000
O     4.826000000     3.301000000    -3.719000000
C     3.621000000     2.924000000    -4.092000000
C     2.690000000     3.921000000    -4.516000000
H     2.971000000     4.970000000    -4.475000000
C     1.439000000     3.535000000    -4.898000000
O     0.584000000     4.513000000    -5.314000000
C    -0.797000000     4.293000000    -5.327000000
C    -1.428000000     3.721000000    -6.401000000
H    -0.803000000     3.415000000    -7.236000000
C    -2.776000000     3.570000000    -6.523000000
H    -3.330000000     3.093000000    -7.328000000
C    -3.490000000     3.934000000    -5.357000000
H    -4.569000000     3.803000000    -5.400000000
C    -2.917000000     4.507000000    -4.186000000
C    -1.530000000     4.702000000    -4.171000000
H    -1.046000000     5.309000000    -3.411000000
O     4.505000000     5.657000000     0.124000000
H     3.630000000     5.331000000    -0.087000000
H     4.363000000     6.561000000     0.403000000
O    -3.205000000     8.277000000    -0.183000000
H    -2.880000000     7.513000000     0.294000000
H    -3.279000000     7.980000000    -1.090000000
O     3.304000000     7.849000000    -4.290000000
H     4.169000000     8.113000000    -3.978000000
H     3.050000000     7.130000000    -3.711000000
O     0.268000000     4.587000000     3.633000000
H     0.940000000     4.568000000     2.951000000
H     0.757000000     4.694000000     4.449000000
O     4.444000000     4.462000000     5.437000000
H     4.632000000     4.521000000     4.500000000
H     4.661000000     5.329000000     5.780000000
O     4.937000000     4.361000000     2.745000000
H     5.290000000     4.685000000     1.917000000
H     3.989000000     4.459000000     2.657000000
O     4.643000000     7.962000000     3.986000000
H     4.404000000     8.056000000     4.909000000
H     3.923000000     7.460000000     3.603000000
O     1.827000000     3.705000000     6.053000000
H     1.863000000     2.760000000     6.200000000
H     2.742000000     3.966000000     5.949000000
O     0.302000000     6.647000000    -0.004000000
H    -0.396000000     6.153000000     0.426000000
H     0.927000000     5.981000000    -0.288000000
O     3.707000000     8.348000000     0.515000000
H     4.340000000     8.921000000     0.948000000
H     2.960000000     8.322000000     1.113000000
O    -2.191000000     6.223000000     1.103000000
H    -2.748000000     6.343000000     1.873000000
H    -1.919000000     5.306000000     1.145000000
O     5.170000000     5.805000000    -2.720000000
H     5.155000000     5.117000000    -3.386000000
H     4.876000000     5.370000000    -1.919000000
O     2.231000000     6.892000000     2.786000000
H     1.353000000     7.180000000     3.036000000
H     2.082000000     6.209000000     2.133000000
O     4.816000000     8.707000000    -2.114000000
H     4.310000000     8.659000000    -1.303000000
H     5.032000000     7.797000000    -2.316000000
O    -1.348000000     3.510000000     1.604000000
H    -1.068000000     3.404000000     2.513000000
H    -0.963000000     2.763000000     1.146000000
O     0.924000000     9.424000000    -0.124000000
H     0.708000000     8.492000000    -0.087000000
H     1.318000000     9.612000000     0.728000000
O    -0.301000000     8.220000000     3.317000000
H    -0.908000000     8.947000000     3.179000000
H    -0.829000000     7.545000000     3.742000000
O    -2.340000000     6.073000000     4.089000000
H    -1.707000000     5.378000000     3.908000000
H    -2.255000000     6.236000000     5.028000000
O     2.365000000     6.372000000    -2.412000000
H     2.076000000     7.140000000    -1.920000000
H     2.250000000     5.641000000    -1.804000000
