201
-1260.80277
C    -1.617000000     0.093000000     4.932000000
H    -1.081000000    -0.781000000     5.294000000
C    -2.386000000     0.036000000     3.780000000
C    -3.036000000     1.096000000     3.241000000
H    -3.546000000     0.917000000     2.298000000
C    -2.396000000    -1.294000000     3.003000000
O    -1.960000000    -2.393000000     3.834000000
H    -1.790000000    -1.142000000     2.098000000
O    -3.744000000    -1.576000000     2.501000000
C    -3.777000000    -2.167000000     1.261000000
C    -4.285000000    -1.439000000     0.219000000
H    -4.701000000    -0.452000000     0.404000000
C    -4.277000000    -1.830000000    -1.124000000
O    -4.645000000    -0.978000000    -2.140000000
C    -3.737000000    -3.106000000    -1.440000000
C    -3.507000000    -3.629000000    -2.882000000
H    -3.428000000    -4.718000000    -2.907000000
C    -2.223000000    -2.943000000    -3.370000000
C    -1.029000000    -3.597000000    -3.228000000
H    -0.998000000    -4.531000000    -2.672000000
H    -4.355000000    -3.319000000    -3.496000000
C    -3.343000000    -3.923000000    -0.429000000
H    -2.921000000    -4.911000000    -0.595000000
C    -3.339000000    -3.489000000     0.943000000
C    -2.648000000    -4.390000000     2.026000000
H    -2.734000000    -5.393000000     1.603000000
H    -3.277000000    -4.313000000     2.916000000
C    -1.197000000    -4.112000000     2.467000000
C    -0.147000000    -4.756000000     1.799000000
H    -0.457000000    -5.519000000     1.089000000
C    -0.924000000    -3.089000000     3.408000000
C     0.370000000    -2.683000000     3.674000000
H     0.560000000    -1.884000000     4.386000000
C     1.393000000    -3.372000000     3.040000000
O     2.700000000    -2.966000000     3.136000000
C     3.172000000    -1.965000000     2.176000000
C     3.922000000    -0.774000000     2.807000000
C     4.743000000     0.012000000     2.034000000
H     4.829000000    -0.266000000     0.987000000
C     3.559000000    -0.383000000     4.109000000
H     2.904000000    -0.954000000     4.762000000
O     4.069000000    -2.625000000     1.203000000
H     2.313000000    -1.578000000     1.609000000
C     1.164000000    -4.436000000     2.134000000
C     2.318000000    -5.040000000     1.318000000
H     2.146000000    -6.083000000     1.047000000
H     3.174000000    -5.135000000     1.990000000
C     2.567000000    -4.096000000     0.071000000
C     1.853000000    -4.302000000    -1.110000000
H     1.066000000    -5.051000000    -1.129000000
C     3.437000000    -3.010000000     0.112000000
C     3.688000000    -2.213000000    -1.018000000
H     4.365000000    -1.365000000    -0.965000000
C     2.985000000    -2.437000000    -2.185000000
O     3.186000000    -1.612000000    -3.259000000
C     2.110000000    -0.738000000    -3.599000000
C     2.517000000     0.758000000    -3.779000000
C     3.733000000     1.090000000    -3.175000000
H     4.342000000     0.319000000    -2.709000000
C     1.805000000     1.761000000    -4.323000000
H     0.824000000     1.509000000    -4.718000000
O     1.329000000    -1.173000000    -4.738000000
H     1.397000000    -0.764000000    -2.762000000
C     2.022000000    -3.451000000    -2.189000000
C     1.442000000    -3.919000000    -3.536000000
H     1.283000000    -4.992000000    -3.664000000
H     2.211000000    -3.706000000    -4.282000000
C     0.133000000    -3.102000000    -3.794000000
C     0.140000000    -1.820000000    -4.374000000
C    -1.057000000    -1.149000000    -4.408000000
H    -1.086000000    -0.163000000    -4.864000000
C    -2.272000000    -1.730000000    -4.038000000
O    -3.399000000    -0.924000000    -4.055000000
C    -3.580000000    -0.257000000    -2.795000000
H    -2.678000000    -0.348000000    -2.172000000
C    -4.036000000     1.207000000    -2.845000000
C    -4.914000000     1.840000000    -1.914000000
H    -5.363000000     1.273000000    -1.103000000
C    -3.389000000     2.029000000    -3.755000000
H    -2.558000000     1.590000000    -4.300000000
C    -3.671000000     3.415000000    -3.812000000
O    -3.276000000     4.127000000    -4.856000000
C    -4.491000000     4.014000000    -2.958000000
H    -4.761000000     5.063000000    -3.044000000
C    -5.097000000     3.233000000    -1.916000000
O    -5.882000000     3.875000000    -0.977000000
C    -5.774000000     3.682000000     0.362000000
C    -4.580000000     3.686000000     1.078000000
H    -3.621000000     3.866000000     0.599000000
C    -6.982000000     3.456000000     1.026000000
H    -7.915000000     3.479000000     0.468000000
C    -7.055000000     3.213000000     2.380000000
H    -7.962000000     2.978000000     2.931000000
C    -5.857000000     3.344000000     3.114000000
H    -5.881000000     3.297000000     4.200000000
C    -4.631000000     3.563000000     2.506000000
O    -3.503000000     3.511000000     3.229000000
C    -2.946000000     2.367000000     3.845000000
C    -2.123000000     2.426000000     4.965000000
H    -2.170000000     3.315000000     5.590000000
C    -1.517000000     1.338000000     5.539000000
O    -0.888000000     1.542000000     6.725000000
C     0.356000000     1.014000000     7.060000000
C     1.491000000     1.354000000     6.281000000
H     1.285000000     1.975000000     5.413000000
C     0.580000000     0.291000000     8.243000000
H    -0.270000000     0.125000000     8.900000000
C     1.840000000    -0.250000000     8.519000000
H     1.892000000    -0.879000000     9.404000000
C     2.925000000     0.025000000     7.691000000
H     3.877000000    -0.443000000     7.925000000
C     2.764000000     0.909000000     6.605000000
O     3.844000000     1.306000000     5.883000000
C     4.120000000     0.813000000     4.610000000
C     4.930000000     1.601000000     3.810000000
H     5.317000000     2.554000000     4.161000000
C     5.238000000     1.245000000     2.471000000
O     5.926000000     2.132000000     1.693000000
C     6.327000000     1.870000000     0.418000000
C     5.623000000     2.325000000    -0.665000000
H     4.743000000     2.958000000    -0.584000000
C     7.400000000     1.001000000     0.254000000
H     7.852000000     0.458000000     1.080000000
C     7.880000000     0.765000000    -1.028000000
H     8.801000000     0.234000000    -1.254000000
C     7.174000000     1.221000000    -2.132000000
H     7.444000000     1.017000000    -3.165000000
C     6.082000000     2.046000000    -1.930000000
O     5.524000000     2.628000000    -3.007000000
C     4.262000000     2.410000000    -3.363000000
C     3.468000000     3.399000000    -3.942000000
H     3.830000000     4.419000000    -4.044000000
C     2.197000000     3.110000000    -4.388000000
O     1.536000000     4.140000000    -4.960000000
C     0.302000000     4.009000000    -5.585000000
C     0.256000000     3.919000000    -6.961000000
H     1.117000000     4.129000000    -7.590000000
C    -1.001000000     3.885000000    -7.619000000
H    -1.164000000     4.024000000    -8.684000000
C    -2.194000000     3.935000000    -6.870000000
H    -3.166000000     4.081000000    -7.333000000
C    -2.115000000     4.052000000    -5.556000000
C    -0.868000000     4.046000000    -4.857000000
H    -0.805000000     4.021000000    -3.772000000
O     1.597000000     5.639000000     3.069000000
H     1.775000000     6.257000000     3.777000000
H     2.258000000     5.838000000     2.406000000
O     6.199000000     5.609000000    -1.467000000
H     5.867000000     5.323000000    -0.616000000
H     7.078000000     5.235000000    -1.519000000
O     3.904000000     7.166000000    -1.376000000
H     4.800000000     6.839000000    -1.459000000
H     3.471000000     6.534000000    -0.802000000
O    -4.462000000     6.371000000    -0.939000000
H    -5.137000000     5.704000000    -0.808000000
H    -3.643000000     5.930000000    -0.713000000
O    -1.654000000     7.699000000    -1.668000000
H    -2.069000000     7.185000000    -0.975000000
H    -1.613000000     7.104000000    -2.416000000
O    -2.049000000     5.524000000    -0.091000000
H    -1.815000000     5.528000000     0.837000000
H    -1.211000000     5.579000000    -0.550000000
O     2.618000000    10.097000000    -2.395000000
H     2.486000000     9.572000000    -1.606000000
H     2.814000000     9.457000000    -3.079000000
O     0.361000000     7.935000000     0.337000000
H    -0.377000000     8.002000000    -0.268000000
H     0.860000000     7.180000000     0.024000000
O     0.578000000     8.611000000    -4.760000000
H     0.814000000     7.718000000    -4.506000000
H     0.292000000     9.024000000    -3.945000000
O     5.214000000     4.921000000     1.005000000
H     5.221000000     4.017000000     1.318000000
H     4.294000000     5.182000000     1.045000000
O     7.236000000     6.784000000     1.985000000
H     6.861000000     5.972000000     1.644000000
H     7.700000000     6.518000000     2.779000000
O     2.431000000     9.734000000     1.078000000
H     2.219000000    10.604000000     0.739000000
H     1.634000000     9.223000000     0.941000000
O     4.337000000     8.051000000    -3.829000000
H     3.672000000     7.494000000    -4.234000000
H     4.218000000     7.921000000    -2.888000000
O     1.111000000     6.214000000    -3.422000000
H     1.472000000     5.539000000    -3.996000000
H     1.288000000     5.895000000    -2.537000000
O    -1.207000000     8.476000000     2.442000000
H    -0.645000000     8.482000000     1.668000000
H    -1.096000000     7.599000000     2.812000000
O     4.475000000     7.561000000     2.567000000
H     5.024000000     7.187000000     1.877000000
H     3.716000000     7.915000000     2.104000000
O    -0.735000000    10.050000000    -2.807000000
H    -1.153000000    10.892000000    -2.627000000
H    -1.303000000     9.405000000    -2.386000000
O    -1.140000000     5.412000000     2.557000000
H    -0.223000000     5.372000000     2.829000000
H    -1.537000000     4.629000000     2.938000000
O     2.083000000    10.168000000     3.663000000
H     1.671000000    11.024000000     3.545000000
H     2.323000000     9.894000000     2.778000000
