201
-1258.24037
C    -2.057000000     0.550000000     4.471000000
H    -1.272000000    -0.154000000     4.735000000
C    -3.069000000     0.074000000     3.596000000
C    -4.123000000     0.926000000     3.239000000
H    -4.873000000     0.571000000     2.537000000
C    -2.880000000    -1.223000000     2.839000000
O    -2.342000000    -2.188000000     3.704000000
H    -2.087000000    -0.910000000     2.144000000
O    -4.041000000    -1.768000000     2.191000000
C    -3.768000000    -2.272000000     0.945000000
C    -4.004000000    -1.429000000    -0.078000000
H    -4.452000000    -0.462000000     0.136000000
C    -3.875000000    -1.853000000    -1.367000000
O    -4.283000000    -0.974000000    -2.341000000
C    -3.349000000    -3.166000000    -1.663000000
C    -3.040000000    -3.654000000    -3.069000000
H    -2.859000000    -4.723000000    -3.199000000
C    -1.692000000    -3.047000000    -3.425000000
C    -0.539000000    -3.789000000    -3.279000000
H    -0.574000000    -4.765000000    -2.803000000
H    -3.786000000    -3.378000000    -3.817000000
C    -3.052000000    -3.979000000    -0.610000000
H    -2.509000000    -4.902000000    -0.795000000
C    -3.211000000    -3.512000000     0.712000000
C    -2.725000000    -4.340000000     1.882000000
H    -2.754000000    -5.380000000     1.549000000
H    -3.508000000    -4.304000000     2.642000000
C    -1.331000000    -3.896000000     2.384000000
C    -0.176000000    -4.542000000     1.916000000
H    -0.217000000    -5.301000000     1.139000000
C    -1.179000000    -2.855000000     3.329000000
C     0.073000000    -2.452000000     3.773000000
H     0.196000000    -1.695000000     4.543000000
C     1.173000000    -3.157000000     3.295000000
O     2.456000000    -2.703000000     3.687000000
C     2.931000000    -1.787000000     2.693000000
C     3.624000000    -0.627000000     3.344000000
C     4.548000000     0.129000000     2.621000000
H     4.820000000    -0.101000000     1.595000000
C     3.215000000    -0.229000000     4.605000000
H     2.457000000    -0.752000000     5.182000000
O     3.848000000    -2.476000000     1.765000000
H     2.136000000    -1.373000000     2.055000000
C     1.083000000    -4.129000000     2.300000000
C     2.230000000    -4.796000000     1.655000000
H     2.078000000    -5.854000000     1.429000000
H     3.113000000    -4.873000000     2.293000000
C     2.626000000    -4.018000000     0.400000000
C     2.286000000    -4.443000000    -0.899000000
H     1.539000000    -5.232000000    -0.935000000
C     3.367000000    -2.865000000     0.514000000
C     3.719000000    -2.141000000    -0.602000000
H     4.436000000    -1.329000000    -0.502000000
C     3.379000000    -2.550000000    -1.893000000
O     3.555000000    -1.678000000    -2.989000000
C     2.641000000    -0.774000000    -3.339000000
C     3.077000000     0.742000000    -3.580000000
C     3.933000000     1.374000000    -2.662000000
H     4.322000000     0.738000000    -1.871000000
C     2.589000000     1.484000000    -4.664000000
H     1.867000000     1.134000000    -5.397000000
O     2.027000000    -1.359000000    -4.484000000
H     1.964000000    -0.716000000    -2.474000000
C     2.629000000    -3.737000000    -2.051000000
C     1.938000000    -4.058000000    -3.336000000
H     1.613000000    -5.098000000    -3.259000000
H     2.663000000    -4.046000000    -4.153000000
C     0.749000000    -3.228000000    -3.543000000
C     0.811000000    -2.008000000    -4.201000000
C    -0.437000000    -1.285000000    -4.363000000
H    -0.383000000    -0.384000000    -4.969000000
C    -1.638000000    -1.792000000    -3.983000000
O    -2.756000000    -0.967000000    -4.127000000
C    -3.131000000    -0.267000000    -2.867000000
H    -2.341000000    -0.422000000    -2.118000000
C    -3.383000000     1.199000000    -3.090000000
C    -4.341000000     1.790000000    -2.263000000
H    -4.963000000     1.202000000    -1.592000000
C    -2.493000000     2.067000000    -3.779000000
H    -1.707000000     1.680000000    -4.421000000
C    -2.695000000     3.445000000    -3.832000000
O    -1.761000000     4.329000000    -4.393000000
C    -3.717000000     3.958000000    -3.033000000
H    -3.864000000     5.022000000    -2.870000000
C    -4.561000000     3.137000000    -2.327000000
O    -5.560000000     3.619000000    -1.488000000
C    -6.045000000     3.011000000    -0.286000000
C    -5.365000000     3.215000000     0.913000000
H    -4.383000000     3.680000000     0.931000000
C    -7.387000000     2.716000000    -0.244000000
H    -7.929000000     2.897000000    -1.169000000
C    -8.020000000     2.338000000     0.978000000
H    -9.060000000     2.028000000     1.039000000
C    -7.319000000     2.468000000     2.169000000
H    -7.771000000     2.280000000     3.140000000
C    -5.966000000     2.892000000     2.141000000
O    -5.302000000     3.010000000     3.350000000
C    -4.257000000     2.199000000     3.715000000
C    -3.315000000     2.600000000     4.687000000
H    -3.482000000     3.568000000     5.154000000
C    -2.241000000     1.821000000     5.049000000
O    -1.483000000     2.380000000     6.022000000
C    -0.449000000     1.739000000     6.672000000
C     0.839000000     2.023000000     6.257000000
H     1.033000000     2.676000000     5.410000000
C    -0.650000000     0.844000000     7.718000000
H    -1.680000000     0.644000000     8.004000000
C     0.394000000     0.054000000     8.148000000
H     0.222000000    -0.677000000     8.934000000
C     1.692000000     0.229000000     7.685000000
H     2.575000000    -0.306000000     8.025000000
C     1.890000000     1.291000000     6.808000000
O     3.156000000     1.418000000     6.335000000
C     3.641000000     0.972000000     5.163000000
C     4.565000000     1.749000000     4.470000000
H     4.966000000     2.624000000     4.975000000
C     5.015000000     1.352000000     3.189000000
O     5.953000000     2.207000000     2.562000000
C     6.326000000     2.007000000     1.253000000
C     5.698000000     2.734000000     0.257000000
H     4.984000000     3.547000000     0.357000000
C     7.206000000     1.001000000     0.933000000
H     7.768000000     0.587000000     1.766000000
C     7.503000000     0.632000000    -0.376000000
H     8.197000000    -0.190000000    -0.526000000
C     6.906000000     1.423000000    -1.399000000
H     7.189000000     1.242000000    -2.433000000
C     6.033000000     2.491000000    -1.101000000
O     5.389000000     3.187000000    -2.088000000
C     4.517000000     2.606000000    -3.000000000
C     4.097000000     3.306000000    -4.160000000
H     4.571000000     4.216000000    -4.518000000
C     3.111000000     2.734000000    -4.918000000
O     2.665000000     3.378000000    -6.025000000
C     1.386000000     3.687000000    -6.259000000
C     0.933000000     3.699000000    -7.529000000
H     1.611000000     3.416000000    -8.331000000
C    -0.425000000     3.761000000    -7.764000000
H    -0.745000000     3.647000000    -8.797000000
C    -1.309000000     3.976000000    -6.708000000
H    -2.371000000     3.970000000    -6.941000000
C    -0.848000000     4.097000000    -5.393000000
C     0.498000000     3.929000000    -5.152000000
H     0.904000000     3.966000000    -4.144000000
O     0.591000000     4.863000000     3.287000000
H     1.340000000     4.640000000     2.734000000
H     0.980000000     5.172000000     4.105000000
O     7.126000000     6.923000000    -1.171000000
H     6.337000000     6.994000000    -1.709000000
H     7.398000000     6.010000000    -1.266000000
O     3.741000000     7.096000000     0.952000000
H     4.683000000     6.923000000     0.965000000
H     3.350000000     6.268000000     0.674000000
O     6.640000000     7.262000000     1.453000000
H     6.914000000     6.721000000     2.194000000
H     7.111000000     6.897000000     0.704000000
O     4.999000000     9.029000000     3.094000000
H     5.839000000     8.836000000     2.677000000
H     4.348000000     8.626000000     2.519000000
O    -1.625000000     8.108000000    -1.510000000
H    -1.190000000     7.437000000    -0.985000000
H    -1.754000000     7.698000000    -2.365000000
O    -0.165000000     6.126000000    -0.319000000
H    -0.649000000     5.592000000     0.310000000
H     0.726000000     5.775000000    -0.297000000
O     2.309000000     8.742000000    -0.393000000
H     2.850000000     8.034000000    -0.042000000
H     2.914000000     9.477000000    -0.495000000
O     0.713000000     7.621000000     2.092000000
H     0.720000000     7.388000000     1.164000000
H     0.794000000     6.784000000     2.550000000
O     0.722000000     7.733000000    -4.565000000
H     1.412000000     7.558000000    -3.926000000
H    -0.074000000     7.390000000    -4.159000000
O     4.728000000     5.419000000     3.277000000
H     4.716000000     4.498000000     3.018000000
H     3.866000000     5.750000000     3.027000000
O     1.268000000    10.561000000     1.665000000
H     1.804000000     9.770000000     1.606000000
H     0.492000000    10.365000000     1.140000000
O     5.212000000     7.014000000    -3.021000000
H     5.743000000     6.253000000    -3.255000000
H     4.310000000     6.733000000    -3.171000000
O     2.403000000     6.994000000    -2.702000000
H     2.139000000     6.257000000    -2.151000000
H     2.446000000     7.739000000    -2.101000000
O    -2.131000000     8.025000000     2.135000000
H    -1.272000000     7.608000000     2.066000000
H    -2.698000000     7.345000000     2.500000000
O     0.033000000    10.192000000    -1.094000000
H    -0.698000000     9.586000000    -1.214000000
H     0.747000000     9.644000000    -0.766000000
O    -1.678000000     5.133000000     1.735000000
H    -0.982000000     4.961000000     2.370000000
H    -2.488000000     5.023000000     2.232000000
O     2.006000000     6.700000000     4.809000000
H     2.052000000     7.650000000     4.914000000
H     2.736000000     6.366000000     5.330000000
O     1.183000000     9.391000000     4.334000000
H     1.033000000     8.801000000     3.596000000
H     0.384000000     9.328000000     4.858000000
