201
-1276.44540
C    -2.415000000     0.651000000     4.905000000
H    -1.506000000     0.186000000     5.276000000
C    -3.043000000     0.022000000     3.815000000
C    -4.104000000     0.691000000     3.187000000
H    -4.588000000     0.247000000     2.321000000
C    -2.577000000    -1.266000000     3.240000000
O    -1.782000000    -1.953000000     4.169000000
H    -1.934000000    -0.988000000     2.392000000
O    -3.605000000    -2.182000000     2.792000000
C    -3.368000000    -2.754000000     1.599000000
C    -3.978000000    -2.250000000     0.444000000
H    -4.505000000    -1.303000000     0.530000000
C    -3.651000000    -2.742000000    -0.830000000
O    -4.185000000    -2.145000000    -1.924000000
C    -2.875000000    -3.894000000    -0.937000000
C    -2.485000000    -4.463000000    -2.287000000
H    -2.211000000    -5.512000000    -2.158000000
C    -1.248000000    -3.739000000    -2.843000000
C     0.008000000    -4.186000000    -2.532000000
H     0.114000000    -4.993000000    -1.811000000
H    -3.367000000    -4.393000000    -2.928000000
C    -2.379000000    -4.455000000     0.257000000
H    -1.783000000    -5.363000000     0.228000000
C    -2.539000000    -3.825000000     1.512000000
C    -1.881000000    -4.404000000     2.683000000
H    -1.703000000    -5.469000000     2.523000000
H    -2.584000000    -4.415000000     3.518000000
C    -0.620000000    -3.782000000     3.079000000
C     0.644000000    -4.234000000     2.648000000
H     0.764000000    -5.111000000     2.016000000
C    -0.637000000    -2.523000000     3.775000000
C     0.536000000    -1.798000000     4.040000000
H     0.442000000    -0.829000000     4.523000000
C     1.739000000    -2.240000000     3.531000000
O     2.798000000    -1.419000000     3.720000000
C     3.281000000    -0.704000000     2.580000000
C     3.655000000     0.767000000     2.975000000
C     4.538000000     1.460000000     2.138000000
H     5.031000000     0.890000000     1.356000000
C     2.735000000     1.473000000     3.778000000
H     2.122000000     0.885000000     4.456000000
O     4.400000000    -1.384000000     1.990000000
H     2.421000000    -0.699000000     1.895000000
C     1.823000000    -3.484000000     2.807000000
C     3.135000000    -4.016000000     2.281000000
H     3.155000000    -5.108000000     2.287000000
H     3.994000000    -3.740000000     2.896000000
C     3.357000000    -3.367000000     0.950000000
C     2.990000000    -3.969000000    -0.221000000
H     2.439000000    -4.892000000    -0.062000000
C     3.999000000    -2.115000000     0.836000000
C     4.160000000    -1.503000000    -0.360000000
H     4.531000000    -0.481000000    -0.381000000
C     3.713000000    -2.110000000    -1.557000000
O     3.889000000    -1.483000000    -2.717000000
C     2.769000000    -0.725000000    -3.210000000
C     3.087000000     0.674000000    -3.755000000
C     4.286000000     1.353000000    -3.469000000
H     4.997000000     0.876000000    -2.798000000
C     2.286000000     1.313000000    -4.664000000
H     1.289000000     0.967000000    -4.926000000
O     2.084000000    -1.529000000    -4.176000000
H     2.124000000    -0.563000000    -2.333000000
C     3.052000000    -3.337000000    -1.461000000
C     2.527000000    -4.002000000    -2.700000000
H     2.565000000    -5.067000000    -2.464000000
H     3.254000000    -3.876000000    -3.506000000
C     1.153000000    -3.499000000    -3.035000000
C     0.998000000    -2.336000000    -3.808000000
C    -0.308000000    -1.923000000    -4.088000000
H    -0.412000000    -0.999000000    -4.652000000
C    -1.441000000    -2.602000000    -3.672000000
O    -2.691000000    -2.069000000    -3.769000000
C    -3.241000000    -1.320000000    -2.607000000
H    -2.394000000    -1.166000000    -1.922000000
C    -3.777000000     0.068000000    -2.976000000
C    -4.737000000     0.584000000    -2.086000000
H    -5.176000000    -0.038000000    -1.310000000
C    -3.186000000     0.897000000    -3.972000000
H    -2.285000000     0.519000000    -4.449000000
C    -3.557000000     2.244000000    -4.041000000
O    -2.861000000     3.216000000    -4.755000000
C    -4.580000000     2.767000000    -3.203000000
H    -4.932000000     3.792000000    -3.287000000
C    -5.211000000     1.907000000    -2.286000000
O    -6.279000000     2.403000000    -1.635000000
C    -6.646000000     2.084000000    -0.345000000
C    -5.803000000     2.466000000     0.773000000
H    -4.876000000     3.004000000     0.594000000
C    -7.906000000     1.516000000    -0.198000000
H    -8.506000000     1.306000000    -1.080000000
C    -8.392000000     1.382000000     1.048000000
H    -9.409000000     1.026000000     1.196000000
C    -7.609000000     1.686000000     2.196000000
H    -7.930000000     1.595000000     3.231000000
C    -6.329000000     2.232000000     2.040000000
O    -5.614000000     2.579000000     3.147000000
C    -4.565000000     1.860000000     3.699000000
C    -3.934000000     2.432000000     4.836000000
H    -4.199000000     3.414000000     5.221000000
C    -2.874000000     1.832000000     5.375000000
O    -2.139000000     2.442000000     6.392000000
C    -0.775000000     2.358000000     6.489000000
C    -0.024000000     3.076000000     5.556000000
H    -0.439000000     3.558000000     4.674000000
C    -0.172000000     1.662000000     7.521000000
H    -0.710000000     1.061000000     8.250000000
C     1.221000000     1.682000000     7.621000000
H     1.749000000     1.315000000     8.498000000
C     1.995000000     2.394000000     6.708000000
H     3.072000000     2.264000000     6.777000000
C     1.378000000     3.080000000     5.694000000
O     2.077000000     3.623000000     4.678000000
C     2.829000000     2.848000000     3.874000000
C     3.753000000     3.519000000     3.124000000
H     3.910000000     4.593000000     3.192000000
C     4.521000000     2.838000000     2.157000000
O     5.409000000     3.503000000     1.280000000
C     6.022000000     2.923000000     0.181000000
C     5.702000000     3.443000000    -1.098000000
H     4.880000000     4.153000000    -1.126000000
C     7.034000000     1.977000000     0.262000000
H     7.304000000     1.590000000     1.241000000
C     7.797000000     1.574000000    -0.834000000
H     8.596000000     0.850000000    -0.692000000
C     7.433000000     2.041000000    -2.076000000
H     7.944000000     1.701000000    -2.973000000
C     6.325000000     2.918000000    -2.258000000
O     5.750000000     3.225000000    -3.508000000
C     4.670000000     2.555000000    -3.937000000
C     3.754000000     3.217000000    -4.863000000
H     3.973000000     4.253000000    -5.109000000
C     2.584000000     2.574000000    -5.247000000
O     1.758000000     3.295000000    -6.100000000
C     0.442000000     2.887000000    -6.354000000
C     0.134000000     2.224000000    -7.557000000
H     0.937000000     2.136000000    -8.285000000
C    -1.153000000     1.686000000    -7.725000000
H    -1.443000000     1.007000000    -8.523000000
C    -2.066000000     1.915000000    -6.688000000
H    -3.125000000     1.759000000    -6.877000000
C    -1.814000000     2.839000000    -5.641000000
C    -0.498000000     3.192000000    -5.373000000
H    -0.242000000     3.703000000    -4.448000000
O    -1.710000000     6.172000000     5.420000000
H    -2.318000000     6.138000000     4.681000000
H    -2.099000000     5.595000000     6.077000000
O    -4.185000000     7.223000000     0.874000000
H    -4.396000000     6.492000000     0.292000000
H    -4.692000000     7.958000000     0.527000000
O     2.911000000     9.294000000     1.204000000
H     3.017000000     9.369000000     2.152000000
H     2.099000000     9.765000000     1.015000000
O     5.249000000     6.039000000     5.255000000
H     4.325000000     6.144000000     5.030000000
H     5.652000000     6.870000000     5.002000000
O     5.858000000     6.712000000     1.456000000
H     4.986000000     6.414000000     1.195000000
H     6.287000000     6.946000000     0.634000000
O     2.797000000     7.488000000     4.466000000
H     2.845000000     8.441000000     4.547000000
H     1.954000000     7.326000000     4.042000000
O    -2.831000000     9.045000000     3.253000000
H    -2.613000000     8.390000000     2.590000000
H    -3.360000000     8.569000000     3.893000000
O     0.140000000     7.398000000     0.439000000
H    -0.075000000     8.169000000     0.964000000
H     0.288000000     6.704000000     1.082000000
O    -2.947000000     6.368000000    -3.599000000
H    -2.894000000     5.966000000    -4.465000000
H    -2.092000000     6.198000000    -3.203000000
O     0.270000000     8.175000000    -3.325000000
H     0.542000000     7.805000000    -4.166000000
H    -0.257000000     7.486000000    -2.920000000
O     0.670000000     6.477000000     3.230000000
H     0.815000000     5.785000000     2.584000000
H    -0.151000000     6.236000000     3.659000000
O     0.440000000    10.261000000     1.490000000
H    -0.141000000    10.111000000     2.235000000
H     0.313000000    11.184000000     1.268000000
O     3.266000000     6.090000000     1.069000000
H     2.792000000     6.867000000     1.367000000
H     2.623000000     5.383000000     1.119000000
O     3.376000000     6.544000000    -1.617000000
H     3.311000000     6.337000000    -0.684000000
H     2.632000000     7.122000000    -1.785000000
O    -0.839000000     6.287000000    -1.879000000
H    -0.254000000     5.568000000    -1.640000000
H    -0.857000000     6.849000000    -1.104000000
O    -4.466000000     5.648000000    -1.411000000
H    -3.971000000     4.833000000    -1.322000000
H    -4.053000000     6.100000000    -2.146000000
O     0.723000000     6.733000000     6.944000000
H     0.399000000     6.310000000     7.739000000
H     0.243000000     6.308000000     6.234000000
O    -2.657000000     3.754000000    -0.812000000
H    -2.363000000     4.316000000    -0.095000000
H    -2.241000000     2.909000000    -0.639000000
O    -2.837000000     6.032000000     2.865000000
H    -3.427000000     6.472000000     2.253000000
H    -2.406000000     5.357000000     2.340000000
