201
-1254.34286
C    -4.188000000    -1.229000000     3.631000000
H    -4.004000000    -2.279000000     3.843000000
C    -4.282000000    -0.814000000     2.231000000
C    -4.481000000     0.539000000     1.979000000
H    -4.517000000     0.849000000     0.937000000
C    -3.903000000    -1.696000000     1.034000000
O    -4.037000000    -3.076000000     1.399000000
H    -2.869000000    -1.441000000     0.759000000
O    -4.712000000    -1.425000000    -0.192000000
C    -4.188000000    -1.489000000    -1.512000000
C    -4.023000000    -0.277000000    -2.171000000
H    -4.557000000     0.589000000    -1.787000000
C    -3.387000000    -0.249000000    -3.385000000
O    -3.153000000     1.063000000    -3.888000000
C    -2.880000000    -1.403000000    -3.986000000
C    -2.058000000    -1.296000000    -5.236000000
H    -2.112000000    -2.238000000    -5.786000000
C    -0.595000000    -0.925000000    -4.945000000
C     0.332000000    -1.991000000    -4.912000000
H    -0.069000000    -2.991000000    -5.062000000
H    -2.518000000    -0.579000000    -5.919000000
C    -3.044000000    -2.627000000    -3.316000000
H    -2.607000000    -3.553000000    -3.680000000
C    -3.704000000    -2.676000000    -2.081000000
C    -3.899000000    -4.000000000    -1.339000000
H    -4.002000000    -4.873000000    -1.987000000
H    -4.901000000    -3.902000000    -0.915000000
C    -2.802000000    -4.244000000    -0.299000000
C    -1.669000000    -4.984000000    -0.621000000
H    -1.595000000    -5.246000000    -1.673000000
C    -2.951000000    -3.792000000     1.009000000
C    -1.917000000    -3.978000000     1.951000000
H    -2.026000000    -3.658000000     2.984000000
C    -0.745000000    -4.583000000     1.563000000
O     0.278000000    -4.520000000     2.470000000
C     1.272000000    -3.485000000     2.201000000
C     1.737000000    -2.865000000     3.507000000
C     3.115000000    -2.507000000     3.576000000
H     3.844000000    -2.693000000     2.791000000
C     0.864000000    -2.499000000     4.571000000
H    -0.101000000    -2.997000000     4.622000000
O     2.329000000    -4.148000000     1.466000000
H     0.845000000    -2.686000000     1.577000000
C    -0.581000000    -5.108000000     0.279000000
C     0.667000000    -5.786000000    -0.113000000
H     0.457000000    -6.578000000    -0.836000000
H     1.163000000    -6.289000000     0.720000000
C     1.601000000    -4.698000000    -0.762000000
C     1.572000000    -4.304000000    -2.098000000
H     0.959000000    -4.929000000    -2.743000000
C     2.388000000    -3.996000000     0.107000000
C     3.177000000    -2.966000000    -0.385000000
H     3.856000000    -2.447000000     0.287000000
C     3.223000000    -2.594000000    -1.716000000
O     3.985000000    -1.467000000    -2.047000000
C     3.289000000    -0.243000000    -2.355000000
C     4.079000000     0.971000000    -1.836000000
C     4.472000000     0.833000000    -0.515000000
H     4.207000000    -0.098000000    -0.021000000
C     4.174000000     2.244000000    -2.429000000
H     3.807000000     2.489000000    -3.422000000
O     3.351000000    -0.165000000    -3.814000000
H     2.245000000    -0.210000000    -2.010000000
C     2.394000000    -3.291000000    -2.591000000
C     2.492000000    -2.937000000    -4.076000000
H     2.315000000    -3.836000000    -4.670000000
H     3.563000000    -2.752000000    -4.181000000
C     1.693000000    -1.785000000    -4.552000000
C     2.150000000    -0.432000000    -4.432000000
C     1.245000000     0.592000000    -4.689000000
H     1.616000000     1.611000000    -4.759000000
C    -0.133000000     0.397000000    -4.907000000
O    -1.005000000     1.467000000    -4.857000000
C    -1.850000000     1.621000000    -3.682000000
H    -1.373000000     1.158000000    -2.805000000
C    -1.926000000     3.042000000    -3.267000000
C    -2.875000000     3.602000000    -2.455000000
H    -3.702000000     2.938000000    -2.216000000
C    -0.853000000     3.892000000    -3.558000000
H     0.012000000     3.544000000    -4.116000000
C    -0.831000000     5.212000000    -3.151000000
O     0.143000000     6.144000000    -3.498000000
C    -1.820000000     5.681000000    -2.275000000
H    -1.712000000     6.736000000    -2.038000000
C    -2.846000000     4.857000000    -1.892000000
O    -3.849000000     5.348000000    -1.043000000
C    -4.738000000     4.529000000    -0.376000000
C    -4.348000000     4.047000000     0.875000000
H    -3.372000000     4.171000000     1.338000000
C    -6.085000000     4.434000000    -0.835000000
H    -6.368000000     4.819000000    -1.811000000
C    -7.053000000     3.845000000     0.040000000
H    -8.071000000     3.744000000    -0.327000000
C    -6.587000000     3.282000000     1.210000000
H    -7.313000000     2.744000000     1.814000000
C    -5.251000000     3.344000000     1.626000000
O    -4.705000000     2.819000000     2.764000000
C    -4.623000000     1.468000000     3.009000000
C    -4.303000000     1.081000000     4.288000000
H    -4.203000000     1.825000000     5.074000000
C    -4.209000000    -0.290000000     4.634000000
O    -3.924000000    -0.642000000     5.934000000
C    -2.701000000    -0.381000000     6.515000000
C    -1.683000000    -1.432000000     6.491000000
H    -1.868000000    -2.345000000     5.931000000
C    -2.466000000     0.775000000     7.240000000
H    -3.217000000     1.561000000     7.231000000
C    -1.240000000     1.012000000     7.833000000
H    -1.138000000     2.037000000     8.180000000
C    -0.227000000     0.072000000     7.613000000
H     0.777000000     0.237000000     7.995000000
C    -0.445000000    -1.132000000     6.956000000
O     0.560000000    -2.027000000     6.882000000
C     1.363000000    -2.097000000     5.768000000
C     2.699000000    -1.747000000     5.843000000
H     3.027000000    -1.302000000     6.779000000
C     3.559000000    -1.903000000     4.788000000
O     4.876000000    -1.487000000     4.936000000
C     5.621000000    -1.010000000     3.918000000
C     5.137000000     0.005000000     3.124000000
H     4.174000000     0.439000000     3.382000000
C     6.895000000    -1.517000000     3.659000000
H     7.303000000    -2.291000000     4.303000000
C     7.755000000    -0.924000000     2.654000000
H     8.777000000    -1.291000000     2.603000000
C     7.270000000     0.099000000     1.907000000
H     7.845000000     0.730000000     1.234000000
C     5.932000000     0.491000000     2.071000000
O     5.400000000     1.627000000     1.491000000
C     5.157000000     1.849000000     0.176000000
C     5.191000000     3.117000000    -0.383000000
H     5.552000000     4.004000000     0.132000000
C     4.720000000     3.301000000    -1.658000000
O     4.562000000     4.624000000    -2.131000000
C     3.652000000     5.074000000    -3.055000000
C     4.177000000     5.407000000    -4.303000000
H     5.245000000     5.410000000    -4.504000000
C     3.311000000     6.059000000    -5.256000000
H     3.655000000     6.383000000    -6.235000000
C     1.969000000     6.244000000    -5.002000000
H     1.347000000     6.734000000    -5.747000000
C     1.445000000     5.760000000    -3.823000000
C     2.277000000     5.173000000    -2.849000000
H     1.832000000     4.783000000    -1.937000000
O     3.026000000     4.335000000     7.434000000
H     2.875000000     3.647000000     6.786000000
H     3.535000000     4.997000000     6.967000000
O    -3.801000000     4.680000000     5.890000000
H    -3.515000000     4.913000000     5.007000000
H    -4.609000000     4.184000000     5.757000000
O     0.568000000     5.265000000     4.894000000
H     0.854000000     6.073000000     4.468000000
H     0.378000000     4.667000000     4.170000000
O     1.736000000     2.105000000     4.789000000
H     1.703000000     2.702000000     4.041000000
H     0.823000000     1.864000000     4.944000000
O    -3.530000000     6.176000000     3.487000000
H    -2.730000000     6.196000000     2.963000000
H    -4.168000000     5.725000000     2.934000000
O     0.571000000     5.385000000     7.485000000
H     0.441000000     5.285000000     6.542000000
H     1.501000000     5.207000000     7.619000000
O     3.314000000     8.521000000     0.893000000
H     3.532000000     7.616000000     1.113000000
H     2.582000000     8.449000000     0.280000000
O     6.944000000     3.763000000     2.254000000
H     7.491000000     3.838000000     1.471000000
H     6.195000000     3.238000000     1.973000000
O    -0.669000000     1.389000000     3.991000000
H    -0.456000000     2.077000000     3.361000000
H    -0.261000000     0.601000000     3.633000000
O     4.373000000     5.955000000     1.401000000
H     3.625000000     5.877000000     0.809000000
H     4.099000000     5.496000000     2.196000000
O    -2.350000000     8.913000000     4.120000000
H    -1.669000000     8.823000000     4.786000000
H    -2.389000000     8.054000000     3.699000000
O     1.137000000     7.543000000     3.730000000
H     1.177000000     8.412000000     4.130000000
H     0.427000000     7.605000000     3.091000000
O     4.438000000     2.799000000     4.950000000
H     4.463000000     3.584000000     4.403000000
H     3.530000000     2.499000000     4.895000000
O     6.565000000     6.528000000    -0.596000000
H     6.650000000     7.259000000     0.015000000
H     5.675000000     6.203000000    -0.459000000
O     0.272000000     8.231000000    -0.105000000
H    -0.517000000     8.717000000     0.132000000
H     0.404000000     8.427000000    -1.033000000
O     6.533000000     6.012000000     3.973000000
H     6.732000000     5.315000000     3.348000000
H     5.648000000     6.296000000     3.741000000
O    -1.351000000     6.695000000     1.990000000
H    -1.419000000     7.134000000     1.142000000
H    -0.807000000     5.927000000     1.819000000
O     3.407000000     5.374000000     3.886000000
H     3.174000000     6.009000000     4.563000000
H     2.587000000     4.921000000     3.690000000
O     1.944000000     5.889000000     0.142000000
H     1.422000000     6.660000000    -0.082000000
H     1.442000000     5.451000000     0.829000000
