201
-1247.76894
C    -4.440000000     1.020000000    -1.997000000
H    -4.382000000     1.428000000    -3.003000000
C    -3.946000000     1.580000000    -0.855000000
C    -4.113000000     0.988000000     0.417000000
H    -3.621000000     1.358000000     1.312000000
C    -2.885000000     2.648000000    -0.917000000
O    -2.862000000     3.347000000    -2.215000000
H    -1.952000000     2.101000000    -0.714000000
O    -2.967000000     3.647000000     0.166000000
C    -1.786000000     4.038000000     0.724000000
C    -1.590000000     3.434000000     1.978000000
H    -2.484000000     3.142000000     2.525000000
C    -0.348000000     3.626000000     2.566000000
O    -0.116000000     3.063000000     3.867000000
C     0.689000000     4.261000000     1.851000000
C     1.987000000     4.567000000     2.478000000
H     2.502000000     5.392000000     1.983000000
C     2.865000000     3.324000000     2.330000000
C     3.649000000     3.264000000     1.174000000
H     3.690000000     4.010000000     0.385000000
H     1.955000000     4.860000000     3.530000000
C     0.492000000     4.741000000     0.592000000
H     1.324000000     5.139000000     0.016000000
C    -0.776000000     4.776000000     0.012000000
C    -1.059000000     5.324000000    -1.382000000
H    -0.455000000     6.233000000    -1.424000000
H    -2.088000000     5.679000000    -1.474000000
C    -0.647000000     4.322000000    -2.444000000
C     0.653000000     4.176000000    -2.920000000
H     1.475000000     4.737000000    -2.481000000
C    -1.652000000     3.450000000    -2.869000000
C    -1.392000000     2.568000000    -3.913000000
H    -2.185000000     1.907000000    -4.251000000
C    -0.115000000     2.429000000    -4.455000000
O     0.180000000     1.362000000    -5.231000000
C     0.606000000     0.177000000    -4.474000000
C    -0.116000000    -1.056000000    -5.055000000
C     0.275000000    -2.344000000    -4.707000000
H     1.192000000    -2.438000000    -4.131000000
C    -1.273000000    -0.881000000    -5.846000000
H    -1.503000000     0.098000000    -6.258000000
O     1.997000000     0.053000000    -4.612000000
H     0.275000000     0.212000000    -3.426000000
C     0.890000000     3.282000000    -3.960000000
C     2.324000000     2.979000000    -4.319000000
H     2.958000000     3.868000000    -4.311000000
H     2.284000000     2.698000000    -5.373000000
C     3.026000000     1.903000000    -3.475000000
C     3.720000000     2.327000000    -2.315000000
H     3.804000000     3.388000000    -2.094000000
C     2.885000000     0.562000000    -3.648000000
C     3.336000000    -0.309000000    -2.645000000
H     3.136000000    -1.363000000    -2.817000000
C     4.042000000     0.142000000    -1.561000000
O     4.482000000    -0.813000000    -0.692000000
C     3.876000000    -0.842000000     0.597000000
C     3.668000000    -2.308000000     1.046000000
C     2.914000000    -3.158000000     0.204000000
H     2.511000000    -2.814000000    -0.744000000
C     4.001000000    -2.741000000     2.328000000
H     4.517000000    -2.054000000     2.994000000
O     4.747000000    -0.171000000     1.519000000
H     2.980000000    -0.204000000     0.587000000
C     4.242000000     1.497000000    -1.382000000
C     5.225000000     2.005000000    -0.386000000
H     5.640000000     2.954000000    -0.732000000
H     6.138000000     1.448000000    -0.168000000
C     4.519000000     2.159000000     0.946000000
C     4.476000000     1.110000000     1.908000000
C     3.779000000     1.253000000     3.118000000
H     3.778000000     0.409000000     3.803000000
C     2.940000000     2.324000000     3.286000000
O     2.121000000     2.255000000     4.325000000
C     0.762000000     1.868000000     3.909000000
H     0.793000000     1.413000000     2.908000000
C     0.161000000     0.859000000     4.805000000
C    -1.242000000     0.832000000     5.036000000
H    -1.843000000     1.566000000     4.506000000
C     0.878000000    -0.123000000     5.448000000
H     1.963000000    -0.178000000     5.400000000
C     0.303000000    -1.058000000     6.313000000
O     0.971000000    -2.116000000     7.009000000
C    -1.074000000    -1.054000000     6.514000000
H    -1.510000000    -1.746000000     7.231000000
C    -1.847000000    -0.052000000     5.922000000
O    -3.236000000    -0.037000000     6.137000000
C    -4.255000000     0.127000000     5.176000000
C    -4.015000000    -0.257000000     3.842000000
H    -3.137000000    -0.846000000     3.589000000
C    -5.445000000     0.774000000     5.494000000
H    -5.553000000     1.279000000     6.451000000
C    -6.470000000     0.853000000     4.525000000
H    -7.445000000     1.277000000     4.749000000
C    -6.289000000     0.319000000     3.225000000
H    -7.097000000     0.344000000     2.498000000
C    -5.013000000    -0.183000000     2.842000000
O    -4.988000000    -0.793000000     1.621000000
C    -4.872000000    -0.117000000     0.452000000
C    -5.412000000    -0.701000000    -0.659000000
H    -6.050000000    -1.573000000    -0.543000000
C    -5.292000000    -0.127000000    -1.922000000
O    -6.087000000    -0.543000000    -2.983000000
C    -5.785000000    -0.417000000    -4.316000000
C    -4.596000000    -1.011000000    -4.785000000
H    -3.873000000    -1.470000000    -4.116000000
C    -6.713000000     0.144000000    -5.213000000
H    -7.719000000     0.467000000    -4.958000000
C    -6.390000000     0.127000000    -6.573000000
H    -7.159000000     0.497000000    -7.247000000
C    -5.246000000    -0.545000000    -7.064000000
H    -4.965000000    -0.654000000    -8.108000000
C    -4.390000000    -1.154000000    -6.163000000
O    -3.299000000    -1.846000000    -6.639000000
C    -2.059000000    -1.961000000    -6.030000000
C    -1.683000000    -3.211000000    -5.662000000
H    -2.278000000    -4.100000000    -5.859000000
C    -0.507000000    -3.452000000    -4.956000000
O    -0.325000000    -4.639000000    -4.347000000
C     0.788000000    -4.947000000    -3.541000000
C     0.712000000    -4.871000000    -2.174000000
H    -0.263000000    -4.676000000    -1.735000000
C     1.972000000    -5.247000000    -4.141000000
H     1.984000000    -5.280000000    -5.228000000
C     3.121000000    -5.529000000    -3.459000000
H     4.024000000    -5.941000000    -3.904000000
C     2.997000000    -5.582000000    -2.081000000
H     3.918000000    -5.726000000    -1.523000000
C     1.795000000    -5.278000000    -1.420000000
O     1.735000000    -5.153000000    -0.054000000
C     2.605000000    -4.417000000     0.661000000
C     2.943000000    -4.877000000     1.939000000
H     2.728000000    -5.861000000     2.347000000
C     3.652000000    -4.038000000     2.746000000
O     3.951000000    -4.427000000     4.087000000
C     3.723000000    -3.735000000     5.312000000
C     4.682000000    -3.843000000     6.297000000
H     5.625000000    -4.332000000     6.064000000
C     4.461000000    -3.362000000     7.549000000
H     5.293000000    -3.423000000     8.245000000
C     3.213000000    -2.808000000     7.799000000
H     3.002000000    -2.431000000     8.796000000
C     2.239000000    -2.638000000     6.822000000
C     2.527000000    -3.098000000     5.557000000
H     1.924000000    -2.852000000     4.687000000
O    -5.913000000    -6.524000000     2.737000000
H    -6.261000000    -6.373000000     3.616000000
H    -4.973000000    -6.646000000     2.869000000
O     0.991000000    -6.949000000     6.270000000
H     1.325000000    -6.515000000     7.055000000
H     0.423000000    -7.643000000     6.603000000
O    -3.090000000    -9.643000000     1.008000000
H    -2.681000000    -9.936000000     0.193000000
H    -2.354000000    -9.448000000     1.588000000
O     1.747000000    -8.459000000     0.245000000
H     1.325000000    -7.600000000     0.244000000
H     2.655000000    -8.279000000     0.488000000
O    -1.739000000    -7.671000000    -1.909000000
H    -2.298000000    -8.448000000    -1.920000000
H    -1.360000000    -7.660000000    -1.030000000
O    -4.979000000    -3.553000000     1.285000000
H    -4.687000000    -2.687000000     1.568000000
H    -4.171000000    -4.054000000     1.172000000
O    -0.897000000    -7.058000000     0.578000000
H    -1.259000000    -6.176000000     0.658000000
H    -0.360000000    -7.170000000     1.362000000
O    -3.534000000    -6.266000000    -0.438000000
H    -2.896000000    -6.735000000    -0.975000000
H    -3.006000000    -5.675000000     0.099000000
O    -1.518000000    -8.812000000     2.910000000
H    -0.718000000    -8.288000000     2.874000000
H    -2.224000000    -8.168000000     2.973000000
O    -3.320000000    -6.275000000     4.046000000
H    -3.555000000    -5.874000000     4.883000000
H    -2.985000000    -5.549000000     3.519000000
O    -3.435000000    -4.262000000     6.420000000
H    -3.511000000    -4.590000000     7.316000000
H    -2.494000000    -4.243000000     6.251000000
O     0.430000000    -6.968000000     2.963000000
H     0.794000000    -7.178000000     3.823000000
H    -0.161000000    -6.233000000     3.126000000
O    -6.348000000    -6.406000000     0.085000000
H    -6.255000000    -6.545000000     1.027000000
H    -5.499000000    -6.063000000    -0.192000000
O    -7.688000000    -3.325000000     1.114000000
H    -6.798000000    -3.568000000     1.371000000
H    -8.191000000    -4.135000000     1.198000000
O    -6.093000000    -3.097000000     5.915000000
H    -6.135000000    -2.336000000     5.336000000
H    -5.169000000    -3.346000000     5.915000000
O    -0.890000000    -4.450000000     5.753000000
H    -0.939000000    -4.384000000     4.800000000
H     0.005000000    -4.741000000     5.928000000
O    -5.008000000    -9.799000000     3.067000000
H    -5.740000000    -9.872000000     2.454000000
H    -4.241000000    -9.667000000     2.510000000
O    -2.491000000    -8.346000000     5.998000000
H    -3.009000000    -9.151000000     5.983000000
H    -2.847000000    -7.818000000     5.283000000
O     3.266000000    -7.206000000     4.625000000
H     3.573000000    -6.302000000     4.690000000
H     2.478000000    -7.230000000     5.167000000
