201
-1248.63760
C    -3.758000000     0.013000000     2.539000000
H    -3.288000000    -0.964000000     2.466000000
C    -4.392000000     0.611000000     1.425000000
C    -4.849000000     1.974000000     1.537000000
H    -5.219000000     2.452000000     0.633000000
C    -4.280000000    -0.009000000     0.073000000
O    -4.710000000    -1.391000000     0.069000000
H    -3.202000000    -0.042000000    -0.145000000
O    -4.948000000     0.753000000    -0.956000000
C    -4.146000000     0.965000000    -2.007000000
C    -3.367000000     2.112000000    -1.957000000
H    -3.671000000     2.821000000    -1.191000000
C    -2.492000000     2.429000000    -2.958000000
O    -1.647000000     3.475000000    -2.706000000
C    -2.388000000     1.544000000    -4.072000000
C    -1.361000000     1.768000000    -5.067000000
H    -1.597000000     1.238000000    -5.992000000
C    -0.009000000     1.175000000    -4.701000000
C     0.394000000    -0.095000000    -4.983000000
H    -0.325000000    -0.840000000    -5.315000000
H    -1.320000000     2.776000000    -5.486000000
C    -3.041000000     0.287000000    -4.028000000
H    -2.980000000    -0.458000000    -4.817000000
C    -3.914000000    -0.015000000    -2.954000000
C    -4.561000000    -1.413000000    -2.910000000
H    -4.673000000    -1.716000000    -3.953000000
H    -5.531000000    -1.241000000    -2.440000000
C    -3.838000000    -2.455000000    -1.969000000
C    -3.045000000    -3.476000000    -2.497000000
H    -2.923000000    -3.502000000    -3.577000000
C    -3.986000000    -2.378000000    -0.567000000
C    -3.310000000    -3.251000000     0.297000000
H    -3.420000000    -3.140000000     1.373000000
C    -2.409000000    -4.208000000    -0.207000000
O    -1.611000000    -4.822000000     0.690000000
C    -0.318000000    -4.324000000     0.916000000
C     0.060000000    -4.583000000     2.400000000
C     1.385000000    -4.899000000     2.627000000
H     2.039000000    -5.110000000     1.785000000
C    -0.804000000    -4.320000000     3.467000000
H    -1.809000000    -3.950000000     3.278000000
O     0.532000000    -4.990000000     0.043000000
H    -0.294000000    -3.277000000     0.578000000
C    -2.274000000    -4.323000000    -1.649000000
C    -1.233000000    -5.228000000    -2.279000000
H    -1.617000000    -5.489000000    -3.268000000
H    -1.163000000    -6.142000000    -1.686000000
C     0.099000000    -4.493000000    -2.301000000
C     0.421000000    -3.750000000    -3.452000000
H    -0.304000000    -3.595000000    -4.247000000
C     0.861000000    -4.416000000    -1.147000000
C     2.040000000    -3.712000000    -1.209000000
H     2.640000000    -3.704000000    -0.303000000
C     2.419000000    -2.988000000    -2.317000000
O     3.583000000    -2.190000000    -2.271000000
C     3.529000000    -0.720000000    -2.213000000
C     4.457000000    -0.241000000    -1.155000000
C     4.589000000    -1.040000000     0.047000000
H     4.042000000    -1.978000000     0.087000000
C     5.074000000     0.967000000    -1.145000000
H     5.159000000     1.597000000    -2.027000000
O     3.822000000    -0.160000000    -3.531000000
H     2.513000000    -0.461000000    -1.879000000
C     1.592000000    -2.974000000    -3.484000000
C     1.936000000    -2.134000000    -4.752000000
H     1.357000000    -2.611000000    -5.546000000
H     2.996000000    -2.268000000    -4.978000000
C     1.640000000    -0.594000000    -4.602000000
C     2.582000000     0.294000000    -4.044000000
C     2.182000000     1.583000000    -3.756000000
H     2.878000000     2.306000000    -3.338000000
C     0.934000000     2.050000000    -4.096000000
O     0.617000000     3.250000000    -3.494000000
C    -0.286000000     3.191000000    -2.364000000
H    -0.214000000     2.179000000    -1.938000000
C     0.135000000     4.247000000    -1.248000000
C    -0.767000000     4.871000000    -0.410000000
H    -1.829000000     4.658000000    -0.492000000
C     1.420000000     4.788000000    -1.255000000
H     2.140000000     4.436000000    -1.989000000
C     1.853000000     5.751000000    -0.326000000
O     3.151000000     6.239000000    -0.276000000
C     0.941000000     6.219000000     0.654000000
H     1.277000000     7.006000000     1.325000000
C    -0.415000000     5.806000000     0.572000000
O    -1.382000000     6.301000000     1.462000000
C    -2.755000000     6.108000000     1.492000000
C    -3.284000000     5.012000000     2.209000000
H    -2.642000000     4.248000000     2.640000000
C    -3.590000000     6.973000000     0.758000000
H    -3.091000000     7.720000000     0.145000000
C    -4.954000000     6.857000000     0.792000000
H    -5.603000000     7.549000000     0.260000000
C    -5.467000000     5.834000000     1.526000000
H    -6.533000000     5.626000000     1.499000000
C    -4.664000000     4.898000000     2.192000000
O    -5.278000000     3.943000000     2.896000000
C    -4.877000000     2.602000000     2.752000000
C    -4.359000000     1.949000000     3.864000000
H    -4.462000000     2.505000000     4.793000000
C    -3.755000000     0.713000000     3.808000000
O    -3.168000000     0.157000000     4.950000000
C    -3.264000000    -1.131000000     5.173000000
C    -2.124000000    -1.938000000     5.498000000
H    -1.214000000    -1.354000000     5.615000000
C    -4.572000000    -1.671000000     5.260000000
H    -5.475000000    -1.066000000     5.263000000
C    -4.653000000    -3.045000000     5.336000000
H    -5.660000000    -3.451000000     5.299000000
C    -3.562000000    -3.831000000     5.715000000
H    -3.713000000    -4.907000000     5.712000000
C    -2.231000000    -3.293000000     5.754000000
O    -1.076000000    -4.034000000     5.848000000
C    -0.288000000    -4.433000000     4.758000000
C     1.067000000    -4.752000000     5.046000000
H     1.434000000    -4.833000000     6.066000000
C     1.930000000    -4.877000000     3.947000000
O     3.273000000    -5.132000000     4.241000000
C     4.303000000    -4.541000000     3.564000000
C     4.370000000    -3.141000000     3.321000000
H     3.616000000    -2.493000000     3.760000000
C     5.209000000    -5.334000000     2.862000000
H     5.211000000    -6.419000000     2.797000000
C     6.261000000    -4.782000000     2.094000000
H     7.042000000    -5.471000000     1.782000000
C     6.360000000    -3.396000000     1.995000000
H     7.152000000    -3.052000000     1.335000000
C     5.408000000    -2.532000000     2.525000000
O     5.341000000    -1.161000000     2.326000000
C     5.256000000    -0.514000000     1.157000000
C     5.832000000     0.752000000     1.105000000
H     6.387000000     1.141000000     1.955000000
C     5.788000000     1.457000000    -0.035000000
O     6.497000000     2.632000000    -0.170000000
C     5.841000000     3.717000000    -0.828000000
C     6.404000000     4.217000000    -1.961000000
H     7.264000000     3.741000000    -2.425000000
C     5.903000000     5.413000000    -2.520000000
H     6.381000000     5.870000000    -3.383000000
C     4.760000000     6.001000000    -1.978000000
H     4.431000000     6.926000000    -2.444000000
C     4.148000000     5.477000000    -0.862000000
C     4.734000000     4.352000000    -0.271000000
H     4.328000000     4.084000000     0.701000000
O     3.354000000     3.421000000     2.755000000
H     2.776000000     3.355000000     1.995000000
H     3.282000000     2.569000000     3.186000000
O    -1.716000000     6.674000000     6.419000000
H    -2.532000000     7.140000000     6.235000000
H    -1.698000000     5.961000000     5.781000000
O     5.018000000    -0.399000000     7.590000000
H     5.199000000     0.201000000     6.867000000
H     4.343000000    -0.987000000     7.250000000
O    -1.916000000    -2.692000000     9.351000000
H    -2.866000000    -2.804000000     9.388000000
H    -1.789000000    -1.747000000     9.268000000
O     5.871000000    -0.145000000     4.941000000
H     5.821000000    -1.028000000     4.576000000
H     6.766000000     0.140000000     4.759000000
O     1.147000000     2.321000000     9.429000000
H     1.448000000     1.560000000     9.925000000
H     0.388000000     2.640000000     9.916000000
O    -1.915000000     0.081000000     8.956000000
H    -1.370000000     0.660000000     8.423000000
H    -1.933000000     0.496000000     9.818000000
O     2.311000000    -1.512000000     5.959000000
H     1.659000000    -0.818000000     5.858000000
H     1.827000000    -2.321000000     5.795000000
O     0.611000000     6.062000000     7.773000000
H     1.526000000     6.284000000     7.602000000
H     0.135000000     6.405000000     7.017000000
O    -3.964000000     1.330000000     7.422000000
H    -3.148000000     1.339000000     7.922000000
H    -3.733000000     0.908000000     6.595000000
O    -2.202000000     4.378000000     9.216000000
H    -1.850000000     3.837000000     8.509000000
H    -2.180000000     3.810000000     9.986000000
O     3.744000000     3.175000000     6.128000000
H     3.715000000     2.422000000     5.538000000
H     2.914000000     3.628000000     5.980000000
O     5.916000000     3.611000000     4.069000000
H     5.427000000     3.743000000     4.881000000
H     5.246000000     3.594000000     3.386000000
O     3.042000000     5.768000000     3.973000000
H     2.204000000     5.589000000     4.400000000
H     3.308000000     4.925000000     3.605000000
O     3.583000000     1.285000000     4.381000000
H     4.315000000     0.682000000     4.508000000
H     2.819000000     0.805000000     4.701000000
O     2.331000000    -2.245000000     8.923000000
H     2.059000000    -1.975000000     8.046000000
H     2.136000000    -3.182000000     8.956000000
O     1.269000000     4.248000000     5.458000000
H     0.712000000     3.810000000     4.814000000
H     0.756000000     4.236000000     6.266000000
O    -0.823000000     1.970000000     7.356000000
H     0.115000000     2.039000000     7.532000000
H    -0.877000000     1.770000000     6.421000000
O    -2.114000000     4.303000000     5.192000000
H    -1.556000000     3.540000000     5.044000000
H    -2.931000000     3.940000000     5.533000000
