201
-1245.66501
C    -3.909000000    -1.064000000     3.018000000
H    -3.717000000    -2.122000000     2.858000000
C    -4.091000000    -0.194000000     1.951000000
C    -4.309000000     1.132000000     2.254000000
H    -4.396000000     1.761000000     1.372000000
C    -4.085000000    -0.737000000     0.450000000
O    -4.484000000    -2.086000000     0.350000000
H    -3.096000000    -0.537000000     0.013000000
O    -4.863000000     0.147000000    -0.372000000
C    -4.257000000     0.537000000    -1.545000000
C    -3.860000000     1.859000000    -1.609000000
H    -4.166000000     2.647000000    -0.925000000
C    -3.138000000     2.253000000    -2.723000000
O    -2.514000000     3.558000000    -2.819000000
C    -2.889000000     1.367000000    -3.792000000
C    -1.966000000     1.775000000    -4.959000000
H    -2.241000000     1.192000000    -5.841000000
C    -0.487000000     1.637000000    -4.580000000
C     0.134000000     0.372000000    -4.885000000
H    -0.506000000    -0.361000000    -5.368000000
H    -2.111000000     2.763000000    -5.399000000
C    -3.366000000     0.071000000    -3.782000000
H    -3.101000000    -0.639000000    -4.561000000
C    -3.950000000    -0.369000000    -2.623000000
C    -4.522000000    -1.744000000    -2.613000000
H    -4.735000000    -2.066000000    -3.634000000
H    -5.506000000    -1.709000000    -2.141000000
C    -3.628000000    -2.748000000    -1.870000000
C    -2.712000000    -3.429000000    -2.642000000
H    -2.701000000    -3.402000000    -3.729000000
C    -3.656000000    -2.877000000    -0.463000000
C    -2.742000000    -3.710000000     0.164000000
H    -2.775000000    -3.846000000     1.242000000
C    -1.732000000    -4.403000000    -0.569000000
O    -0.805000000    -5.026000000     0.177000000
C     0.400000000    -4.243000000     0.356000000
C     0.851000000    -4.378000000     1.795000000
C     2.186000000    -4.003000000     2.096000000
H     2.868000000    -3.706000000     1.303000000
C    -0.018000000    -4.701000000     2.824000000
H    -1.079000000    -4.850000000     2.639000000
O     1.445000000    -4.710000000    -0.554000000
H     0.115000000    -3.228000000     0.045000000
C    -1.660000000    -4.254000000    -2.000000000
C    -0.565000000    -4.980000000    -2.750000000
H    -0.957000000    -5.198000000    -3.746000000
H    -0.498000000    -5.979000000    -2.314000000
C     0.712000000    -4.047000000    -2.784000000
C     0.889000000    -3.168000000    -3.867000000
H     0.181000000    -2.945000000    -4.661000000
C     1.583000000    -3.938000000    -1.700000000
C     2.665000000    -3.089000000    -1.709000000
H     3.387000000    -3.068000000    -0.898000000
C     2.834000000    -2.168000000    -2.786000000
O     3.723000000    -1.224000000    -2.662000000
C     3.461000000     0.102000000    -2.124000000
C     4.571000000     0.522000000    -1.178000000
C     5.191000000    -0.352000000    -0.312000000
H     4.855000000    -1.379000000    -0.427000000
C     4.820000000     1.931000000    -1.003000000
H     4.292000000     2.653000000    -1.620000000
O     3.376000000     1.006000000    -3.270000000
H     2.497000000     0.029000000    -1.600000000
C     1.939000000    -2.232000000    -3.878000000
C     2.119000000    -1.168000000    -4.888000000
H     1.725000000    -1.390000000    -5.882000000
H     3.145000000    -0.836000000    -5.058000000
C     1.427000000     0.125000000    -4.491000000
C     2.155000000     1.157000000    -3.881000000
C     1.594000000     2.343000000    -3.554000000
H     2.048000000     3.182000000    -3.032000000
C     0.291000000     2.636000000    -3.916000000
O    -0.226000000     3.812000000    -3.475000000
C    -1.099000000     3.648000000    -2.405000000
H    -0.789000000     2.758000000    -1.838000000
C    -0.911000000     4.674000000    -1.403000000
C    -1.956000000     5.212000000    -0.614000000
H    -2.995000000     4.897000000    -0.679000000
C     0.392000000     5.071000000    -1.113000000
H     1.223000000     4.710000000    -1.713000000
C     0.732000000     5.982000000    -0.130000000
O     1.983000000     6.460000000     0.154000000
C    -0.280000000     6.403000000     0.714000000
H    -0.041000000     7.078000000     1.532000000
C    -1.632000000     6.007000000     0.491000000
O    -2.615000000     6.465000000     1.428000000
C    -3.667000000     5.633000000     1.749000000
C    -3.609000000     4.787000000     2.822000000
H    -2.759000000     4.780000000     3.500000000
C    -4.854000000     5.684000000     0.976000000
H    -4.847000000     6.440000000     0.195000000
C    -5.940000000     4.878000000     1.226000000
H    -6.808000000     4.938000000     0.575000000
C    -5.832000000     3.960000000     2.249000000
H    -6.682000000     3.324000000     2.482000000
C    -4.702000000     3.953000000     3.033000000
O    -4.527000000     2.897000000     3.883000000
C    -4.247000000     1.569000000     3.521000000
C    -4.021000000     0.748000000     4.629000000
H    -4.109000000     1.260000000     5.584000000
C    -3.831000000    -0.630000000     4.346000000
O    -3.500000000    -1.405000000     5.423000000
C    -3.285000000    -2.770000000     5.319000000
C    -1.956000000    -3.282000000     5.224000000
H    -1.094000000    -2.639000000     5.063000000
C    -4.354000000    -3.577000000     5.711000000
H    -5.332000000    -3.156000000     5.927000000
C    -4.101000000    -4.929000000     5.828000000
H    -4.881000000    -5.649000000     6.062000000
C    -2.786000000    -5.434000000     5.688000000
H    -2.580000000    -6.498000000     5.778000000
C    -1.729000000    -4.605000000     5.346000000
O    -0.418000000    -5.158000000     5.171000000
C     0.466000000    -4.788000000     4.134000000
C     1.807000000    -4.484000000     4.452000000
H     2.169000000    -4.671000000     5.460000000
C     2.646000000    -4.068000000     3.406000000
O     3.960000000    -3.877000000     3.714000000
C     5.057000000    -3.658000000     2.835000000
C     5.543000000    -2.311000000     2.608000000
H     5.178000000    -1.508000000     3.244000000
C     5.531000000    -4.720000000     1.990000000
H     5.122000000    -5.722000000     2.095000000
C     6.601000000    -4.474000000     1.122000000
H     6.969000000    -5.250000000     0.455000000
C     7.043000000    -3.173000000     0.980000000
H     7.769000000    -2.997000000     0.190000000
C     6.491000000    -2.053000000     1.632000000
O     6.872000000    -0.778000000     1.286000000
C     6.155000000     0.108000000     0.571000000
C     6.475000000     1.448000000     0.674000000
H     7.322000000     1.878000000     1.203000000
C     5.750000000     2.349000000    -0.058000000
O     5.930000000     3.697000000     0.156000000
C     5.181000000     4.763000000    -0.346000000
C     5.863000000     5.684000000    -1.067000000
H     6.928000000     5.575000000    -1.256000000
C     5.143000000     6.792000000    -1.644000000
H     5.625000000     7.548000000    -2.259000000
C     3.747000000     6.910000000    -1.364000000
H     3.242000000     7.807000000    -1.714000000
C     3.155000000     6.054000000    -0.475000000
C     3.856000000     4.922000000    -0.004000000
H     3.426000000     4.314000000     0.787000000
O    -0.955000000     6.319000000     4.609000000
H    -0.399000000     5.739000000     4.089000000
H    -0.385000000     7.052000000     4.842000000
O     4.220000000     2.364000000     2.782000000
H     3.345000000     2.365000000     3.172000000
H     4.421000000     1.438000000     2.648000000
O    -2.847000000     6.046000000     6.823000000
H    -2.042000000     6.059000000     6.306000000
H    -3.403000000     6.711000000     6.418000000
O     0.014000000    -0.675000000    10.666000000
H     0.954000000    -0.850000000    10.703000000
H    -0.154000000    -0.461000000     9.748000000
O     3.751000000     1.318000000     8.801000000
H     3.367000000     0.490000000     8.512000000
H     3.473000000     1.406000000     9.712000000
O     5.187000000    -3.126000000     6.805000000
H     4.718000000    -2.578000000     6.175000000
H     6.110000000    -3.016000000     6.576000000
O     2.209000000     7.161000000     7.698000000
H     2.066000000     6.253000000     7.431000000
H     1.331000000     7.540000000     7.741000000
O     2.379000000     4.468000000     8.450000000
H     3.184000000     4.184000000     8.017000000
H     1.688000000     3.951000000     8.036000000
O     3.382000000    -1.255000000     5.870000000
H     2.995000000    -0.486000000     5.452000000
H     3.105000000    -1.196000000     6.784000000
O     5.390000000     2.814000000     7.370000000
H     4.928000000     3.186000000     6.619000000
H     4.744000000     2.248000000     7.792000000
O     2.471000000    -1.050000000     8.539000000
H     2.483000000    -1.928000000     8.922000000
H     1.780000000    -1.088000000     7.877000000
O     0.464000000    -0.153000000     6.935000000
H     0.519000000     0.765000000     7.201000000
H    -0.142000000    -0.152000000     6.194000000
O    -1.672000000     4.265000000     8.542000000
H    -2.245000000     3.518000000     8.372000000
H    -2.104000000     5.002000000     8.109000000
O     6.042000000     0.581000000     4.724000000
H     5.121000000     0.831000000     4.638000000
H     6.509000000     1.190000000     4.152000000
O     3.601000000     6.482000000     4.311000000
H     2.873000000     6.937000000     4.734000000
H     3.245000000     6.187000000     3.473000000
O     6.438000000     3.827000000     3.693000000
H     6.218000000     4.749000000     3.823000000
H     5.673000000     3.459000000     3.250000000
O     1.349000000     4.949000000     3.454000000
H     1.173000000     4.051000000     3.735000000
H     1.189000000     4.940000000     2.510000000
O     3.470000000     3.740000000     5.566000000
H     3.477000000     4.612000000     5.171000000
H     2.779000000     3.270000000     5.100000000
O     0.433000000     2.733000000     7.243000000
H     0.427000000     2.619000000     6.293000000
H    -0.273000000     3.357000000     7.414000000
