201
-1257.47850
C    -3.193000000    -1.571000000     3.150000000
H    -2.601000000    -2.431000000     2.848000000
C    -3.857000000    -0.723000000     2.251000000
C    -4.253000000     0.586000000     2.666000000
H    -4.711000000     1.261000000     1.948000000
C    -3.850000000    -0.922000000     0.731000000
O    -4.157000000    -2.384000000     0.514000000
H    -2.848000000    -0.649000000     0.370000000
O    -4.866000000    -0.151000000    -0.026000000
C    -4.437000000     0.386000000    -1.166000000
C    -4.098000000     1.724000000    -1.128000000
H    -4.139000000     2.248000000    -0.177000000
C    -3.413000000     2.297000000    -2.288000000
O    -2.969000000     3.526000000    -2.120000000
C    -3.180000000     1.522000000    -3.434000000
C    -2.406000000     2.085000000    -4.586000000
H    -2.762000000     1.544000000    -5.465000000
C    -0.905000000     1.964000000    -4.427000000
C    -0.252000000     0.885000000    -4.948000000
H    -0.908000000     0.177000000    -5.448000000
H    -2.635000000     3.140000000    -4.749000000
C    -3.480000000     0.131000000    -3.396000000
H    -3.287000000    -0.517000000    -4.247000000
C    -4.208000000    -0.428000000    -2.277000000
C    -4.666000000    -1.852000000    -2.438000000
H    -4.868000000    -1.967000000    -3.505000000
H    -5.556000000    -1.882000000    -1.804000000
C    -3.600000000    -2.808000000    -1.874000000
C    -2.698000000    -3.435000000    -2.740000000
H    -2.862000000    -3.367000000    -3.812000000
C    -3.438000000    -3.060000000    -0.509000000
C    -2.442000000    -3.872000000    -0.040000000
H    -2.334000000    -4.016000000     1.032000000
C    -1.427000000    -4.370000000    -0.846000000
O    -0.397000000    -5.049000000    -0.270000000
C     0.840000000    -4.304000000    -0.117000000
C     1.440000000    -4.593000000     1.247000000
C     2.694000000    -4.083000000     1.478000000
H     3.296000000    -3.633000000     0.693000000
C     0.772000000    -5.302000000     2.293000000
H    -0.213000000    -5.737000000     2.144000000
O     1.710000000    -4.574000000    -1.250000000
H     0.573000000    -3.238000000    -0.062000000
C    -1.576000000    -4.202000000    -2.226000000
C    -0.443000000    -4.740000000    -3.183000000
H    -0.743000000    -5.014000000    -4.197000000
H    -0.034000000    -5.667000000    -2.777000000
C     0.676000000    -3.710000000    -3.252000000
C     0.660000000    -2.689000000    -4.262000000
H    -0.103000000    -2.647000000    -5.036000000
C     1.680000000    -3.628000000    -2.271000000
C     2.724000000    -2.704000000    -2.293000000
H     3.494000000    -2.591000000    -1.534000000
C     2.763000000    -1.746000000    -3.314000000
O     3.740000000    -0.795000000    -3.283000000
C     3.305000000     0.386000000    -2.614000000
C     4.223000000     0.922000000    -1.507000000
C     5.046000000     0.034000000    -0.887000000
H     5.017000000    -0.982000000    -1.273000000
C     4.120000000     2.234000000    -1.081000000
H     3.537000000     3.013000000    -1.565000000
O     3.075000000     1.296000000    -3.618000000
H     2.390000000     0.137000000    -2.056000000
C     1.729000000    -1.771000000    -4.280000000
C     1.727000000    -0.629000000    -5.348000000
H     1.054000000    -0.814000000    -6.187000000
H     2.732000000    -0.324000000    -5.646000000
C     1.085000000     0.630000000    -4.742000000
C     1.800000000     1.550000000    -3.973000000
C     1.203000000     2.667000000    -3.378000000
H     1.742000000     3.374000000    -2.752000000
C    -0.184000000     2.869000000    -3.628000000
O    -0.806000000     3.961000000    -2.995000000
C    -1.567000000     3.676000000    -1.832000000
H    -1.225000000     2.703000000    -1.448000000
C    -1.374000000     4.746000000    -0.792000000
C    -2.224000000     4.894000000     0.283000000
H    -3.177000000     4.372000000     0.245000000
C    -0.131000000     5.382000000    -0.733000000
H     0.648000000     5.214000000    -1.472000000
C     0.178000000     6.344000000     0.232000000
O     1.319000000     7.114000000     0.233000000
C    -0.743000000     6.602000000     1.200000000
H    -0.536000000     7.311000000     1.998000000
C    -1.900000000     5.742000000     1.353000000
O    -2.813000000     5.944000000     2.387000000
C    -3.884000000     5.153000000     2.725000000
C    -3.658000000     3.928000000     3.282000000
H    -2.650000000     3.530000000     3.370000000
C    -5.172000000     5.710000000     2.498000000
H    -5.305000000     6.681000000     2.029000000
C    -6.219000000     5.038000000     3.112000000
H    -7.200000000     5.483000000     2.968000000
C    -6.040000000     3.859000000     3.795000000
H    -6.830000000     3.350000000     4.341000000
C    -4.764000000     3.217000000     3.780000000
O    -4.629000000     2.093000000     4.512000000
C    -4.107000000     0.875000000     4.019000000
C    -3.574000000    -0.003000000     4.872000000
H    -3.540000000     0.305000000     5.914000000
C    -3.100000000    -1.221000000     4.465000000
O    -2.457000000    -2.075000000     5.346000000
C    -2.247000000    -3.405000000     5.176000000
C    -0.960000000    -3.884000000     4.874000000
H    -0.212000000    -3.153000000     4.579000000
C    -3.322000000    -4.277000000     5.475000000
H    -4.292000000    -4.003000000     5.881000000
C    -3.051000000    -5.663000000     5.561000000
H    -3.795000000    -6.354000000     5.948000000
C    -1.764000000    -6.175000000     5.264000000
H    -1.493000000    -7.226000000     5.303000000
C    -0.768000000    -5.314000000     4.838000000
O     0.539000000    -5.781000000     4.670000000
C     1.282000000    -5.279000000     3.604000000
C     2.586000000    -4.822000000     3.858000000
H     3.130000000    -5.025000000     4.777000000
C     3.290000000    -4.335000000     2.756000000
O     4.595000000    -3.922000000     2.920000000
C     5.554000000    -3.581000000     1.927000000
C     6.023000000    -2.204000000     1.873000000
H     5.832000000    -1.554000000     2.723000000
C     5.933000000    -4.487000000     0.954000000
H     5.455000000    -5.461000000     1.032000000
C     6.765000000    -4.069000000    -0.061000000
H     6.966000000    -4.741000000    -0.891000000
C     7.041000000    -2.690000000    -0.221000000
H     7.520000000    -2.307000000    -1.118000000
C     6.731000000    -1.754000000     0.821000000
O     6.883000000    -0.331000000     0.717000000
C     5.918000000     0.473000000     0.130000000
C     5.855000000     1.780000000     0.599000000
H     6.542000000     2.147000000     1.357000000
C     4.951000000     2.640000000     0.008000000
O     4.914000000     3.927000000     0.447000000
C     4.323000000     5.041000000    -0.082000000
C     5.003000000     5.792000000    -1.019000000
H     5.995000000     5.465000000    -1.320000000
C     4.505000000     6.954000000    -1.590000000
H     5.068000000     7.498000000    -2.345000000
C     3.227000000     7.406000000    -1.144000000
H     2.774000000     8.303000000    -1.558000000
C     2.547000000     6.704000000    -0.209000000
C     3.148000000     5.622000000     0.421000000
H     2.648000000     5.161000000     1.269000000
O     3.314000000     2.322000000     6.869000000
H     3.709000000     2.188000000     6.008000000
H     2.627000000     1.657000000     6.923000000
O     0.700000000    -0.075000000    10.614000000
H     0.925000000     0.315000000     9.769000000
H    -0.246000000     0.052000000    10.692000000
O    -2.633000000     2.886000000     9.734000000
H    -1.824000000     2.940000000     9.224000000
H    -2.704000000     3.741000000    10.160000000
O     1.038000000     0.702000000     8.045000000
H     0.416000000     1.427000000     7.979000000
H     0.781000000     0.102000000     7.344000000
O    -2.345000000    -0.634000000     9.211000000
H    -2.639000000     0.028000000     8.585000000
H    -2.886000000    -1.400000000     9.021000000
O     1.667000000    -2.258000000     6.863000000
H     1.608000000    -1.716000000     6.076000000
H     2.496000000    -2.004000000     7.267000000
O     5.390000000     1.458000000     4.818000000
H     5.067000000     0.588000000     4.582000000
H     6.343000000     1.365000000     4.828000000
O    -2.007000000     5.143000000     6.915000000
H    -1.630000000     5.735000000     6.264000000
H    -2.953000000     5.218000000     6.787000000
O     1.085000000     5.024000000     8.197000000
H     1.718000000     5.426000000     7.602000000
H     0.375000000     4.729000000     7.627000000
O     1.680000000    -2.449000000     9.784000000
H     1.172000000    -2.455000000     8.973000000
H     1.538000000    -1.576000000    10.150000000
O    -0.081000000     6.104000000     5.017000000
H     0.133000000     5.283000000     4.574000000
H     0.450000000     6.763000000     4.571000000
O     3.836000000     3.507000000     3.548000000
H     4.155000000     2.663000000     3.867000000
H     2.888000000     3.395000000     3.479000000
O     4.284000000     6.090000000     4.216000000
H     3.839000000     5.261000000     4.038000000
H     5.151000000     5.986000000     3.825000000
O     4.850000000    -2.774000000     6.791000000
H     5.089000000    -3.694000000     6.903000000
H     4.825000000    -2.423000000     7.681000000
O     3.925000000    -0.956000000     4.542000000
H     3.956000000    -1.793000000     5.006000000
H     3.070000000    -0.589000000     4.769000000
O     0.384000000     3.740000000     3.586000000
H    -0.050000000     3.319000000     2.844000000
H     0.422000000     3.061000000     4.259000000
O    -0.783000000     2.787000000     7.338000000
H    -1.362000000     3.485000000     7.031000000
H    -0.351000000     2.468000000     6.545000000
O     4.825000000     0.466000000     8.663000000
H     5.273000000     1.062000000     9.264000000
H     4.325000000     1.040000000     8.084000000
O     4.511000000     4.310000000     8.029000000
H     5.308000000     3.929000000     8.397000000
H     3.988000000     3.555000000     7.759000000
