201
-1267.16736
C    -3.515000000    -0.911000000     2.137000000
H    -2.974000000    -1.796000000     1.813000000
C    -4.122000000    -0.063000000     1.183000000
C    -4.583000000     1.174000000     1.630000000
H    -5.169000000     1.832000000     0.993000000
C    -4.026000000    -0.348000000    -0.318000000
O    -4.486000000    -1.679000000    -0.621000000
H    -2.958000000    -0.334000000    -0.579000000
O    -4.666000000     0.620000000    -1.094000000
C    -4.052000000     1.030000000    -2.234000000
C    -3.440000000     2.274000000    -2.042000000
H    -3.621000000     2.725000000    -1.069000000
C    -2.554000000     2.813000000    -2.960000000
O    -1.942000000     3.985000000    -2.661000000
C    -2.207000000     2.000000000    -4.073000000
C    -1.143000000     2.526000000    -4.985000000
H    -1.282000000     2.175000000    -6.010000000
C     0.356000000     2.243000000    -4.504000000
C     0.930000000     1.100000000    -4.950000000
H     0.310000000     0.374000000    -5.470000000
H    -1.273000000     3.597000000    -5.156000000
C    -2.889000000     0.782000000    -4.241000000
H    -2.665000000     0.214000000    -5.141000000
C    -3.797000000     0.263000000    -3.369000000
C    -4.331000000    -1.139000000    -3.498000000
H    -4.496000000    -1.531000000    -4.503000000
H    -5.285000000    -1.252000000    -2.978000000
C    -3.366000000    -2.124000000    -2.792000000
C    -2.335000000    -2.775000000    -3.491000000
H    -2.193000000    -2.586000000    -4.552000000
C    -3.630000000    -2.352000000    -1.461000000
C    -2.848000000    -3.303000000    -0.840000000
H    -2.933000000    -3.522000000     0.222000000
C    -1.786000000    -3.948000000    -1.468000000
O    -1.031000000    -4.839000000    -0.701000000
C     0.201000000    -4.268000000    -0.296000000
C     0.470000000    -4.778000000     1.162000000
C     1.792000000    -4.959000000     1.535000000
H     2.638000000    -4.621000000     0.942000000
C    -0.535000000    -5.111000000     2.041000000
H    -1.574000000    -5.023000000     1.735000000
O     1.191000000    -4.717000000    -1.202000000
H     0.230000000    -3.169000000    -0.261000000
C    -1.564000000    -3.686000000    -2.783000000
C    -0.466000000    -4.458000000    -3.459000000
H    -0.748000000    -4.565000000    -4.509000000
H    -0.424000000    -5.494000000    -3.119000000
C     0.806000000    -3.637000000    -3.339000000
C     1.152000000    -2.620000000    -4.184000000
H     0.532000000    -2.507000000    -5.069000000
C     1.548000000    -3.770000000    -2.120000000
C     2.593000000    -2.950000000    -1.869000000
H     3.258000000    -3.148000000    -1.033000000
C     3.007000000    -1.974000000    -2.756000000
O     4.073000000    -1.252000000    -2.413000000
C     3.858000000     0.075000000    -1.923000000
C     4.606000000     0.397000000    -0.671000000
C     4.675000000    -0.588000000     0.324000000
H     4.341000000    -1.611000000     0.175000000
C     5.136000000     1.670000000    -0.425000000
H     5.160000000     2.456000000    -1.176000000
O     3.979000000     1.121000000    -2.853000000
H     2.837000000     0.048000000    -1.514000000
C     2.237000000    -1.763000000    -3.972000000
C     2.645000000    -0.693000000    -4.983000000
H     2.202000000    -0.941000000    -5.950000000
H     3.716000000    -0.806000000    -5.164000000
C     2.203000000     0.692000000    -4.517000000
C     2.832000000     1.455000000    -3.477000000
C     2.255000000     2.662000000    -3.044000000
H     2.702000000     3.364000000    -2.345000000
C     1.042000000     3.026000000    -3.524000000
O     0.382000000     4.123000000    -2.959000000
C    -0.637000000     3.760000000    -1.978000000
H    -0.553000000     2.687000000    -1.754000000
C    -0.541000000     4.452000000    -0.622000000
C    -1.654000000     5.187000000    -0.122000000
H    -2.585000000     5.236000000    -0.681000000
C     0.670000000     4.460000000     0.097000000
H     1.477000000     3.908000000    -0.377000000
C     0.742000000     5.124000000     1.373000000
O     1.836000000     4.966000000     2.191000000
C    -0.403000000     5.795000000     1.831000000
H    -0.295000000     6.239000000     2.817000000
C    -1.596000000     5.806000000     1.077000000
O    -2.651000000     6.516000000     1.548000000
C    -3.839000000     5.848000000     1.916000000
C    -3.776000000     4.563000000     2.441000000
H    -2.818000000     4.069000000     2.586000000
C    -5.087000000     6.447000000     1.713000000
H    -5.067000000     7.480000000     1.376000000
C    -6.222000000     5.839000000     2.181000000
H    -7.150000000     6.404000000     2.217000000
C    -6.170000000     4.573000000     2.739000000
H    -7.060000000     4.112000000     3.160000000
C    -4.946000000     3.982000000     2.891000000
O    -4.964000000     2.711000000     3.504000000
C    -4.439000000     1.563000000     2.953000000
C    -3.844000000     0.730000000     3.843000000
H    -3.680000000     0.981000000     4.888000000
C    -3.371000000    -0.491000000     3.440000000
O    -2.807000000    -1.354000000     4.313000000
C    -3.121000000    -2.722000000     4.319000000
C    -2.040000000    -3.652000000     4.353000000
H    -1.023000000    -3.275000000     4.290000000
C    -4.445000000    -3.151000000     4.274000000
H    -5.211000000    -2.381000000     4.313000000
C    -4.723000000    -4.574000000     4.195000000
H    -5.724000000    -4.989000000     4.111000000
C    -3.630000000    -5.444000000     4.105000000
H    -3.897000000    -6.495000000     4.028000000
C    -2.334000000    -4.984000000     4.199000000
O    -1.307000000    -5.892000000     4.115000000
C    -0.223000000    -5.638000000     3.285000000
C     1.095000000    -5.993000000     3.615000000
H     1.306000000    -6.519000000     4.542000000
C     2.104000000    -5.557000000     2.772000000
O     3.515000000    -5.660000000     3.098000000
C     4.472000000    -4.799000000     2.619000000
C     4.374000000    -3.456000000     2.828000000
H     3.517000000    -3.079000000     3.381000000
C     5.563000000    -5.388000000     1.908000000
H     5.624000000    -6.463000000     1.759000000
C     6.576000000    -4.552000000     1.441000000
H     7.500000000    -4.882000000     0.975000000
C     6.462000000    -3.180000000     1.535000000
H     7.185000000    -2.524000000     1.058000000
C     5.376000000    -2.627000000     2.305000000
O     5.296000000    -1.268000000     2.511000000
C     5.336000000    -0.321000000     1.522000000
C     5.830000000     0.937000000     1.780000000
H     6.275000000     1.155000000     2.748000000
C     5.630000000     1.896000000     0.835000000
O     6.085000000     3.108000000     1.198000000
C     5.231000000     4.199000000     1.231000000
C     5.753000000     5.468000000     0.963000000
H     6.753000000     5.568000000     0.549000000
C     4.909000000     6.578000000     1.033000000
H     5.165000000     7.606000000     0.790000000
C     3.640000000     6.448000000     1.521000000
H     2.951000000     7.289000000     1.527000000
C     3.142000000     5.187000000     1.822000000
C     3.967000000     4.058000000     1.712000000
H     3.433000000     3.166000000     2.029000000
O     3.650000000     0.910000000     8.867000000
H     2.709000000     0.775000000     8.756000000
H     3.960000000     1.167000000     7.999000000
O    -3.162000000    -1.954000000     7.788000000
H    -2.949000000    -1.041000000     7.981000000
H    -2.454000000    -2.456000000     8.192000000
O     2.327000000    -3.518000000     6.040000000
H     3.112000000    -2.975000000     5.963000000
H     1.632000000    -2.992000000     5.645000000
O    -1.805000000     2.685000000     5.366000000
H    -1.741000000     2.490000000     6.301000000
H    -0.998000000     2.331000000     4.992000000
O     3.922000000    -1.323000000     5.428000000
H     3.332000000    -0.624000000     5.146000000
H     4.619000000    -1.327000000     4.773000000
O    -0.665000000    -3.249000000     8.021000000
H     0.236000000    -3.218000000     8.343000000
H    -0.681000000    -2.622000000     7.297000000
O     3.196000000     5.005000000     8.495000000
H     4.101000000     5.230000000     8.712000000
H     2.876000000     5.756000000     7.996000000
O     0.255000000    -1.468000000     5.541000000
H     0.909000000    -0.787000000     5.384000000
H    -0.490000000    -1.215000000     4.996000000
O    -1.504000000     1.155000000     8.416000000
H    -1.010000000     1.971000000     8.490000000
H    -2.390000000     1.385000000     8.698000000
O     1.854000000    -3.208000000     9.361000000
H     2.362000000    -3.980000000     9.614000000
H     2.432000000    -2.725000000     8.770000000
O     1.197000000     0.688000000     7.241000000
H     0.283000000     0.439000000     7.379000000
H     1.218000000     1.039000000     6.351000000
O     0.432000000     4.397000000     7.922000000
H     0.087000000     4.612000000     7.055000000
H     1.332000000     4.114000000     7.758000000
O    -3.931000000     4.612000000     5.839000000
H    -3.610000000     3.910000000     5.272000000
H    -4.857000000     4.697000000     5.612000000
O    -0.658000000     5.194000000     5.303000000
H    -1.502000000     5.546000000     5.583000000
H    -0.865000000     4.332000000     4.943000000
O     3.913000000     1.902000000     6.122000000
H     3.413000000     2.718000000     6.141000000
H     3.311000000     1.262000000     5.742000000
O     4.084000000    -2.314000000     8.180000000
H     4.505000000    -1.582000000     8.631000000
H     3.987000000    -2.015000000     7.276000000
O     3.351000000     6.216000000     5.772000000
H     2.881000000     5.385000000     5.698000000
H     4.141000000     6.092000000     5.246000000
O     2.057000000     3.880000000     5.388000000
H     2.140000000     4.242000000     4.506000000
H     1.421000000     3.170000000     5.296000000
O     6.462000000     1.024000000     6.792000000
H     5.646000000     1.339000000     6.404000000
H     6.995000000     0.756000000     6.043000000
