201
-1239.45882
C    -4.487000000     1.997000000    -2.630000000
H    -4.032000000     2.164000000    -3.603000000
C    -3.914000000     2.552000000    -1.448000000
C    -4.572000000     2.410000000    -0.261000000
H    -4.246000000     2.845000000     0.680000000
C    -2.559000000     3.208000000    -1.514000000
O    -2.239000000     3.641000000    -2.888000000
H    -1.758000000     2.510000000    -1.230000000
O    -2.543000000     4.332000000    -0.617000000
C    -1.326000000     4.510000000     0.010000000
C    -1.283000000     3.894000000     1.262000000
H    -2.113000000     3.448000000     1.805000000
C    -0.071000000     3.962000000     2.015000000
O    -0.136000000     3.442000000     3.311000000
C     1.102000000     4.426000000     1.338000000
C     2.458000000     4.559000000     2.007000000
H     3.036000000     5.248000000     1.387000000
C     3.248000000     3.293000000     2.122000000
C     4.009000000     2.937000000     1.011000000
H     4.179000000     3.600000000     0.166000000
H     2.388000000     4.973000000     3.015000000
C     1.002000000     4.889000000     0.006000000
H     1.872000000     5.192000000    -0.570000000
C    -0.162000000     5.004000000    -0.641000000
C    -0.182000000     5.334000000    -2.120000000
H     0.556000000     6.110000000    -2.337000000
H    -1.105000000     5.836000000    -2.418000000
C     0.100000000     4.036000000    -2.954000000
C     1.408000000     3.612000000    -3.317000000
H     2.251000000     4.228000000    -3.016000000
C    -0.989000000     3.279000000    -3.360000000
C    -0.835000000     2.052000000    -4.007000000
H    -1.779000000     1.544000000    -4.183000000
C     0.403000000     1.640000000    -4.464000000
O     0.626000000     0.396000000    -4.995000000
C     0.761000000    -0.562000000    -4.013000000
C    -0.151000000    -1.731000000    -4.242000000
C     0.161000000    -3.052000000    -3.815000000
H     1.092000000    -3.268000000    -3.298000000
C    -1.459000000    -1.621000000    -4.842000000
H    -1.777000000    -0.669000000    -5.257000000
O     2.146000000    -1.042000000    -4.220000000
H     0.705000000    -0.086000000    -3.023000000
C     1.540000000     2.473000000    -4.099000000
C     2.937000000     1.907000000    -4.534000000
H     3.745000000     2.639000000    -4.581000000
H     2.858000000     1.363000000    -5.478000000
C     3.378000000     0.941000000    -3.443000000
C     4.186000000     1.372000000    -2.435000000
H     4.487000000     2.414000000    -2.354000000
C     3.065000000    -0.456000000    -3.389000000
C     3.656000000    -1.354000000    -2.432000000
H     3.515000000    -2.429000000    -2.361000000
C     4.393000000    -0.799000000    -1.349000000
O     4.681000000    -1.629000000    -0.280000000
C     3.990000000    -1.248000000     0.991000000
C     3.512000000    -2.445000000     1.681000000
C     2.586000000    -3.204000000     0.994000000
H     2.347000000    -2.978000000    -0.042000000
C     3.785000000    -2.708000000     3.045000000
H     4.502000000    -2.099000000     3.589000000
O     4.819000000    -0.535000000     1.879000000
H     3.112000000    -0.662000000     0.683000000
C     4.649000000     0.571000000    -1.379000000
C     5.489000000     1.284000000    -0.272000000
H     6.027000000     2.148000000    -0.667000000
H     6.259000000     0.547000000    -0.035000000
C     4.636000000     1.624000000     0.904000000
C     4.461000000     0.753000000     1.931000000
C     3.626000000     1.114000000     3.043000000
H     3.468000000     0.388000000     3.837000000
C     3.020000000     2.355000000     3.121000000
O     1.974000000     2.457000000     3.974000000
C     0.694000000     2.254000000     3.438000000
H     0.892000000     1.740000000     2.486000000
C    -0.073000000     1.233000000     4.257000000
C    -1.268000000     0.729000000     3.691000000
H    -1.625000000     1.151000000     2.755000000
C     0.474000000     0.621000000     5.410000000
H     1.401000000     0.981000000     5.849000000
C    -0.225000000    -0.376000000     6.026000000
O     0.336000000    -1.089000000     7.135000000
C    -1.457000000    -0.774000000     5.529000000
H    -1.989000000    -1.619000000     5.958000000
C    -1.961000000    -0.257000000     4.321000000
O    -3.151000000    -0.682000000     3.752000000
C    -4.151000000     0.177000000     3.594000000
C    -4.806000000     0.380000000     2.361000000
H    -4.488000000    -0.129000000     1.455000000
C    -4.600000000     0.834000000     4.749000000
H    -4.167000000     0.617000000     5.721000000
C    -5.624000000     1.712000000     4.579000000
H    -5.947000000     2.159000000     5.516000000
C    -6.208000000     2.029000000     3.330000000
H    -6.961000000     2.807000000     3.245000000
C    -5.816000000     1.369000000     2.211000000
O    -6.458000000     1.626000000     0.978000000
C    -5.779000000     1.770000000    -0.174000000
C    -6.335000000     1.273000000    -1.345000000
H    -7.280000000     0.752000000    -1.212000000
C    -5.713000000     1.331000000    -2.605000000
O    -6.271000000     0.793000000    -3.747000000
C    -5.624000000     0.287000000    -4.814000000
C    -4.802000000    -0.845000000    -4.749000000
H    -4.625000000    -1.267000000    -3.764000000
C    -5.919000000     0.673000000    -6.135000000
H    -6.606000000     1.508000000    -6.242000000
C    -5.399000000     0.038000000    -7.278000000
H    -5.794000000     0.304000000    -8.255000000
C    -4.535000000    -1.090000000    -7.113000000
H    -4.044000000    -1.579000000    -7.950000000
C    -4.244000000    -1.493000000    -5.847000000
O    -3.489000000    -2.627000000    -5.667000000
C    -2.350000000    -2.615000000    -4.884000000
C    -2.005000000    -3.902000000    -4.418000000
H    -2.723000000    -4.706000000    -4.560000000
C    -0.800000000    -4.054000000    -3.788000000
O    -0.565000000    -5.431000000    -3.422000000
C     0.348000000    -5.762000000    -2.502000000
C     0.314000000    -5.319000000    -1.231000000
H    -0.459000000    -4.582000000    -1.031000000
C     1.415000000    -6.571000000    -2.860000000
H     1.357000000    -7.001000000    -3.857000000
C     2.431000000    -6.910000000    -1.937000000
H     3.260000000    -7.521000000    -2.284000000
C     2.414000000    -6.346000000    -0.639000000
H     3.251000000    -6.596000000     0.008000000
C     1.319000000    -5.547000000    -0.262000000
O     1.152000000    -5.167000000     1.019000000
C     1.993000000    -4.324000000     1.669000000
C     2.269000000    -4.561000000     2.923000000
H     1.839000000    -5.435000000     3.405000000
C     3.136000000    -3.767000000     3.647000000
O     3.464000000    -4.094000000     4.953000000
C     2.997000000    -3.401000000     6.042000000
C     3.753000000    -3.429000000     7.174000000
H     4.734000000    -3.895000000     7.217000000
C     3.421000000    -2.695000000     8.281000000
H     4.069000000    -2.544000000     9.141000000
C     2.332000000    -1.912000000     8.210000000
H     2.123000000    -1.231000000     9.032000000
C     1.532000000    -1.802000000     7.078000000
C     1.830000000    -2.604000000     5.995000000
H     1.257000000    -2.499000000     5.078000000
O    -7.291000000    -2.367000000     0.732000000
H    -7.689000000    -2.517000000    -0.125000000
H    -6.515000000    -2.927000000     0.738000000
O    -8.597000000    -6.471000000     0.655000000
H    -8.927000000    -5.860000000    -0.003000000
H    -7.735000000    -6.127000000     0.890000000
O    -6.605000000    -5.443000000     5.486000000
H    -7.458000000    -5.664000000     5.113000000
H    -5.975000000    -5.896000000     4.926000000
O    -5.760000000    -5.896000000     1.087000000
H    -5.270000000    -5.088000000     1.245000000
H    -5.289000000    -6.325000000     0.372000000
O    -8.606000000    -0.257000000     2.181000000
H    -9.218000000     0.224000000     1.624000000
H    -8.080000000    -0.772000000     1.570000000
O    -1.564000000    -8.531000000     2.511000000
H    -1.516000000    -7.583000000     2.384000000
H    -0.749000000    -8.864000000     2.135000000
O    -5.457000000    -8.248000000     2.587000000
H    -5.820000000    -7.602000000     1.981000000
H    -4.901000000    -8.804000000     2.042000000
O    -1.586000000    -6.020000000     1.276000000
H    -0.677000000    -5.722000000     1.265000000
H    -2.047000000    -5.365000000     1.801000000
O    -4.833000000    -7.034000000    -1.234000000
H    -5.538000000    -7.446000000    -1.733000000
H    -4.788000000    -6.141000000    -1.574000000
O    -5.591000000    -4.192000000    -1.441000000
H    -6.488000000    -3.875000000    -1.332000000
H    -5.187000000    -4.067000000    -0.582000000
O    -5.787000000    -2.996000000     6.410000000
H    -6.044000000    -3.881000000     6.150000000
H    -5.785000000    -2.498000000     5.593000000
O    -3.466000000    -5.360000000     6.645000000
H    -3.345000000    -6.137000000     7.191000000
H    -4.070000000    -5.642000000     5.957000000
O    -1.534000000    -4.472000000     4.901000000
H    -2.282000000    -4.814000000     5.390000000
H    -1.900000000    -4.207000000     4.057000000
O    -4.633000000    -8.559000000     5.414000000
H    -4.764000000    -7.788000000     4.861000000
H    -3.685000000    -8.695000000     5.413000000
O    -6.319000000    -2.636000000     3.559000000
H    -5.671000000    -3.153000000     3.080000000
H    -6.756000000    -2.117000000     2.884000000
O    -4.573000000    -6.202000000     3.876000000
H    -4.245000000    -5.445000000     3.391000000
H    -5.072000000    -6.703000000     3.231000000
O    -3.632000000    -9.486000000     1.141000000
H    -3.349000000    -9.074000000     0.325000000
H    -2.859000000    -9.456000000     1.705000000
O     0.313000000    -6.547000000     5.742000000
H     0.238000000    -6.342000000     6.674000000
H    -0.302000000    -5.950000000     5.316000000
O    -2.077000000    -7.943000000    -0.789000000
H    -1.932000000    -7.262000000    -0.132000000
H    -2.909000000    -7.705000000    -1.200000000
