201
-1267.31114
C    -4.322000000     1.798000000    -2.551000000
H    -3.585000000     1.429000000    -3.260000000
C    -4.021000000     2.767000000    -1.640000000
C    -4.771000000     2.998000000    -0.499000000
H    -4.446000000     3.632000000     0.322000000
C    -2.607000000     3.233000000    -1.776000000
O    -2.309000000     3.468000000    -3.215000000
H    -1.828000000     2.565000000    -1.377000000
O    -2.553000000     4.429000000    -1.072000000
C    -1.381000000     4.608000000    -0.293000000
C    -1.401000000     4.252000000     1.054000000
H    -2.369000000     3.994000000     1.477000000
C    -0.240000000     4.217000000     1.884000000
O    -0.309000000     3.628000000     3.168000000
C     0.930000000     4.543000000     1.209000000
C     2.314000000     4.493000000     1.902000000
H     2.921000000     5.259000000     1.415000000
C     2.957000000     3.178000000     1.939000000
C     3.948000000     2.967000000     1.005000000
H     4.107000000     3.697000000     0.215000000
H     2.136000000     4.876000000     2.909000000
C     0.961000000     4.831000000    -0.172000000
H     1.917000000     5.063000000    -0.633000000
C    -0.206000000     4.856000000    -0.961000000
C    -0.095000000     5.101000000    -2.457000000
H     0.554000000     5.930000000    -2.745000000
H    -1.073000000     5.510000000    -2.720000000
C     0.047000000     3.850000000    -3.316000000
C     1.304000000     3.357000000    -3.703000000
H     2.142000000     3.953000000    -3.350000000
C    -1.101000000     3.099000000    -3.639000000
C    -0.929000000     1.861000000    -4.343000000
H    -1.721000000     1.141000000    -4.529000000
C     0.338000000     1.406000000    -4.673000000
O     0.437000000     0.047000000    -4.981000000
C     0.909000000    -0.876000000    -3.968000000
C     0.030000000    -2.132000000    -3.957000000
C     0.332000000    -3.290000000    -3.313000000
H     1.276000000    -3.363000000    -2.779000000
C    -1.237000000    -2.079000000    -4.570000000
H    -1.528000000    -1.147000000    -5.048000000
O     2.288000000    -1.204000000    -4.139000000
H     0.758000000    -0.335000000    -3.023000000
C     1.475000000     2.176000000    -4.355000000
C     2.878000000     1.573000000    -4.512000000
H     3.646000000     2.314000000    -4.744000000
H     2.933000000     0.897000000    -5.368000000
C     3.293000000     0.757000000    -3.249000000
C     4.140000000     1.378000000    -2.300000000
H     4.415000000     2.424000000    -2.410000000
C     3.086000000    -0.599000000    -3.232000000
C     3.612000000    -1.358000000    -2.228000000
H     3.296000000    -2.398000000    -2.204000000
C     4.238000000    -0.741000000    -1.143000000
O     4.732000000    -1.586000000    -0.133000000
C     4.086000000    -1.431000000     1.102000000
C     3.867000000    -2.750000000     1.780000000
C     3.578000000    -3.886000000     1.065000000
H     3.676000000    -3.846000000    -0.017000000
C     3.862000000    -2.778000000     3.188000000
H     4.030000000    -1.991000000     3.920000000
O     4.833000000    -0.469000000     1.941000000
H     3.085000000    -1.014000000     0.921000000
C     4.624000000     0.590000000    -1.249000000
C     5.529000000     1.201000000    -0.142000000
H     6.097000000     2.062000000    -0.500000000
H     6.255000000     0.521000000     0.309000000
C     4.620000000     1.730000000     1.009000000
C     4.292000000     0.829000000     2.003000000
C     3.341000000     1.000000000     2.941000000
H     3.038000000     0.246000000     3.663000000
C     2.652000000     2.217000000     2.925000000
O     1.581000000     2.402000000     3.809000000
C     0.259000000     2.238000000     3.228000000
H     0.332000000     1.793000000     2.224000000
C    -0.614000000     1.281000000     4.068000000
C    -1.988000000     1.234000000     3.854000000
H    -2.537000000     1.845000000     3.143000000
C    -0.016000000     0.415000000     4.937000000
H     1.036000000     0.574000000     5.160000000
C    -0.825000000    -0.547000000     5.589000000
O    -0.297000000    -1.355000000     6.588000000
C    -2.184000000    -0.679000000     5.304000000
H    -2.807000000    -1.416000000     5.805000000
C    -2.725000000     0.227000000     4.371000000
O    -4.077000000     0.174000000     4.033000000
C    -4.937000000     1.151000000     3.736000000
C    -5.396000000     1.314000000     2.420000000
H    -5.165000000     0.683000000     1.566000000
C    -5.501000000     1.906000000     4.701000000
H    -5.264000000     1.642000000     5.728000000
C    -6.462000000     2.879000000     4.403000000
H    -6.881000000     3.529000000     5.167000000
C    -6.894000000     3.027000000     3.099000000
H    -7.758000000     3.632000000     2.838000000
C    -6.278000000     2.307000000     2.066000000
O    -6.743000000     2.422000000     0.744000000
C    -5.959000000     2.311000000    -0.405000000
C    -6.370000000     1.413000000    -1.358000000
H    -7.325000000     0.909000000    -1.240000000
C    -5.577000000     1.154000000    -2.375000000
O    -6.097000000     0.197000000    -3.277000000
C    -5.423000000    -0.294000000    -4.332000000
C    -4.686000000    -1.517000000    -4.225000000
H    -4.558000000    -2.107000000    -3.321000000
C    -5.524000000     0.355000000    -5.579000000
H    -6.113000000     1.268000000    -5.619000000
C    -4.804000000    -0.136000000    -6.675000000
H    -4.845000000     0.363000000    -7.640000000
C    -4.085000000    -1.291000000    -6.568000000
H    -3.595000000    -1.673000000    -7.460000000
C    -4.039000000    -1.974000000    -5.370000000
O    -3.331000000    -3.138000000    -5.246000000
C    -2.079000000    -3.203000000    -4.579000000
C    -1.706000000    -4.393000000    -4.012000000
H    -2.384000000    -5.239000000    -3.932000000
C    -0.434000000    -4.471000000    -3.386000000
O    -0.073000000    -5.645000000    -2.719000000
C     1.102000000    -5.959000000    -2.134000000
C     1.234000000    -6.156000000    -0.809000000
H     0.378000000    -6.080000000    -0.144000000
C     2.183000000    -6.213000000    -3.027000000
H     1.989000000    -6.070000000    -4.087000000
C     3.441000000    -6.519000000    -2.525000000
H     4.302000000    -6.610000000    -3.183000000
C     3.637000000    -6.592000000    -1.116000000
H     4.630000000    -6.668000000    -0.681000000
C     2.552000000    -6.361000000    -0.269000000
O     2.788000000    -6.262000000     1.076000000
C     3.132000000    -5.078000000     1.714000000
C     3.076000000    -5.073000000     3.080000000
H     2.761000000    -5.946000000     3.646000000
C     3.516000000    -3.955000000     3.832000000
O     3.410000000    -4.090000000     5.210000000
C     2.991000000    -3.033000000     6.053000000
C     3.727000000    -2.563000000     7.182000000
H     4.749000000    -2.856000000     7.411000000
C     3.054000000    -1.674000000     8.030000000
H     3.721000000    -1.345000000     8.822000000
C     1.740000000    -1.314000000     7.892000000
H     1.184000000    -0.777000000     8.656000000
C     1.043000000    -1.716000000     6.716000000
C     1.732000000    -2.513000000     5.748000000
H     1.307000000    -2.830000000     4.799000000
O    -6.101000000    -4.847000000     1.986000000
H    -6.220000000    -5.731000000     1.639000000
H    -5.228000000    -4.589000000     1.691000000
O    -8.089000000    -3.751000000     3.708000000
H    -7.564000000    -4.294000000     3.120000000
H    -7.446000000    -3.248000000     4.208000000
O    -6.666000000    -7.595000000     1.114000000
H    -6.275000000    -7.688000000     0.246000000
H    -5.950000000    -7.781000000     1.721000000
O    -6.180000000    -6.310000000     4.505000000
H    -6.213000000    -5.893000000     5.365000000
H    -5.919000000    -5.608000000     3.908000000
O    -4.763000000    -7.893000000     2.797000000
H    -4.082000000    -7.226000000     2.719000000
H    -5.142000000    -7.748000000     3.664000000
O    -4.093000000    -4.579000000     7.507000000
H    -4.201000000    -4.343000000     6.586000000
H    -3.331000000    -5.158000000     7.518000000
O    -1.674000000    -8.358000000    -1.841000000
H    -1.266000000    -7.636000000    -2.320000000
H    -2.145000000    -7.935000000    -1.124000000
O    -1.370000000    -9.353000000     3.852000000
H    -0.774000000   -10.045000000     4.139000000
H    -0.794000000    -8.662000000     3.522000000
O    -2.490000000    -6.398000000     2.378000000
H    -1.604000000    -6.470000000     2.732000000
H    -2.689000000    -5.463000000     2.417000000
O    -4.934000000    -8.308000000    -0.883000000
H    -4.182000000    -7.722000000    -0.801000000
H    -5.000000000    -8.483000000    -1.822000000
O     0.141000000    -6.971000000     3.346000000
H     0.243000000    -6.572000000     4.210000000
H     1.012000000    -6.919000000     2.953000000
O    -5.253000000    -5.410000000    -3.599000000
H    -5.648000000    -4.549000000    -3.460000000
H    -5.365000000    -5.863000000    -2.764000000
O    -6.528000000    -5.204000000    -0.946000000
H    -6.769000000    -4.547000000    -1.599000000
H    -5.918000000    -4.752000000    -0.364000000
O    -1.764000000    -6.165000000     7.490000000
H    -2.032000000    -6.980000000     7.066000000
H    -1.095000000    -5.802000000     6.911000000
O    -1.216000000    -3.779000000     5.125000000
H    -1.167000000    -2.907000000     5.516000000
H    -2.101000000    -3.829000000     4.764000000
O    -6.294000000    -1.556000000     4.706000000
H    -7.045000000    -0.977000000     4.577000000
H    -5.545000000    -1.053000000     4.386000000
O    -4.302000000    -3.847000000     5.015000000
H    -3.880000000    -3.860000000     4.156000000
H    -4.924000000    -3.121000000     4.965000000
O     0.542000000    -5.799000000     5.727000000
H     0.111000000    -4.967000000     5.533000000
H     1.021000000    -5.637000000     6.540000000
O    -2.921000000    -6.589000000    -0.337000000
H    -2.664000000    -6.753000000     0.570000000
H    -3.128000000    -5.655000000    -0.362000000
