201
-1233.26525
C    -2.968000000    -2.300000000     4.008000000
H    -2.736000000    -3.316000000     3.698000000
C    -3.497000000    -1.404000000     3.063000000
C    -3.981000000    -0.238000000     3.629000000
H    -4.459000000     0.445000000     2.931000000
C    -3.640000000    -1.673000000     1.597000000
O    -3.747000000    -3.115000000     1.346000000
H    -2.789000000    -1.309000000     1.002000000
O    -4.837000000    -1.024000000     1.011000000
C    -4.633000000    -0.360000000    -0.192000000
C    -4.398000000     0.974000000    -0.177000000
H    -4.357000000     1.613000000     0.702000000
C    -4.230000000     1.678000000    -1.371000000
O    -3.933000000     2.990000000    -1.314000000
C    -3.953000000     0.879000000    -2.568000000
C    -3.537000000     1.581000000    -3.848000000
H    -3.888000000     0.960000000    -4.675000000
C    -2.007000000     1.688000000    -3.940000000
C    -1.358000000     0.652000000    -4.559000000
H    -1.987000000    -0.008000000    -5.150000000
H    -4.025000000     2.548000000    -3.984000000
C    -4.069000000    -0.490000000    -2.507000000
H    -3.839000000    -1.000000000    -3.439000000
C    -4.528000000    -1.135000000    -1.350000000
C    -4.777000000    -2.632000000    -1.416000000
H    -5.079000000    -2.994000000    -2.401000000
H    -5.592000000    -2.877000000    -0.732000000
C    -3.503000000    -3.457000000    -0.998000000
C    -2.655000000    -3.853000000    -2.078000000
H    -2.990000000    -3.777000000    -3.109000000
C    -3.096000000    -3.602000000     0.266000000
C    -1.830000000    -4.153000000     0.517000000
H    -1.541000000    -4.214000000     1.563000000
C    -0.889000000    -4.346000000    -0.541000000
O     0.357000000    -4.783000000    -0.237000000
C     1.477000000    -3.868000000    -0.545000000
C     2.418000000    -3.672000000     0.728000000
C     3.762000000    -3.382000000     0.617000000
H     4.204000000    -3.248000000    -0.367000000
C     1.822000000    -3.643000000     1.969000000
H     0.741000000    -3.713000000     2.054000000
O     2.071000000    -4.361000000    -1.727000000
H     1.052000000    -2.868000000    -0.717000000
C    -1.319000000    -4.245000000    -1.889000000
C    -0.464000000    -4.536000000    -3.185000000
H    -1.176000000    -4.726000000    -3.990000000
H     0.000000000    -5.513000000    -3.034000000
C     0.672000000    -3.584000000    -3.559000000
C     0.361000000    -2.574000000    -4.452000000
H    -0.626000000    -2.585000000    -4.909000000
C     1.869000000    -3.579000000    -2.843000000
C     2.733000000    -2.579000000    -3.026000000
H     3.724000000    -2.584000000    -2.580000000
C     2.406000000    -1.485000000    -3.806000000
O     3.250000000    -0.389000000    -3.850000000
C     2.784000000     0.722000000    -3.091000000
C     3.850000000     1.418000000    -2.286000000
C     5.085000000     0.855000000    -2.086000000
H     5.256000000    -0.025000000    -2.700000000
C     3.677000000     2.673000000    -1.668000000
H     2.710000000     3.166000000    -1.732000000
O     2.153000000     1.607000000    -4.039000000
H     2.044000000     0.354000000    -2.365000000
C     1.255000000    -1.544000000    -4.655000000
C     0.755000000    -0.401000000    -5.527000000
H     0.070000000    -0.781000000    -6.287000000
H     1.574000000     0.084000000    -6.062000000
C     0.046000000     0.653000000    -4.713000000
C     0.786000000     1.714000000    -4.090000000
C     0.121000000     2.784000000    -3.382000000
H     0.772000000     3.549000000    -2.967000000
C    -1.341000000     2.765000000    -3.265000000
O    -2.066000000     3.673000000    -2.549000000
C    -2.550000000     3.318000000    -1.241000000
H    -2.090000000     2.357000000    -0.970000000
C    -2.203000000     4.407000000    -0.225000000
C    -2.921000000     4.509000000     0.972000000
H    -3.798000000     3.877000000     1.085000000
C    -1.080000000     5.153000000    -0.437000000
H    -0.472000000     5.005000000    -1.326000000
C    -0.720000000     6.107000000     0.554000000
O     0.464000000     6.857000000     0.407000000
C    -1.493000000     6.202000000     1.711000000
H    -1.174000000     6.967000000     2.415000000
C    -2.502000000     5.331000000     2.007000000
O    -3.202000000     5.439000000     3.229000000
C    -4.082000000     4.501000000     3.646000000
C    -3.636000000     3.358000000     4.237000000
H    -2.571000000     3.275000000     4.436000000
C    -5.425000000     4.722000000     3.358000000
H    -5.650000000     5.615000000     2.781000000
C    -6.364000000     3.921000000     3.937000000
H    -7.439000000     4.068000000     3.882000000
C    -5.932000000     2.756000000     4.650000000
H    -6.731000000     2.114000000     5.013000000
C    -4.577000000     2.434000000     4.701000000
O    -4.235000000     1.345000000     5.481000000
C    -3.770000000     0.137000000     4.987000000
C    -3.107000000    -0.777000000     5.863000000
H    -3.084000000    -0.475000000     6.907000000
C    -2.770000000    -2.021000000     5.346000000
O    -2.225000000    -3.012000000     6.244000000
C    -1.251000000    -3.883000000     5.854000000
C    -0.025000000    -3.329000000     5.414000000
H     0.214000000    -2.278000000     5.557000000
C    -1.577000000    -5.191000000     5.444000000
H    -2.605000000    -5.539000000     5.507000000
C    -0.592000000    -6.062000000     4.905000000
H    -0.747000000    -7.079000000     4.555000000
C     0.730000000    -5.488000000     4.625000000
H     1.519000000    -6.179000000     4.340000000
C     0.926000000    -4.100000000     4.805000000
O     2.087000000    -3.413000000     4.452000000
C     2.616000000    -3.455000000     3.151000000
C     3.974000000    -3.280000000     3.021000000
H     4.495000000    -3.098000000     3.958000000
C     4.562000000    -3.173000000     1.737000000
O     5.909000000    -2.831000000     1.699000000
C     6.608000000    -2.442000000     0.590000000
C     6.489000000    -1.119000000     0.179000000
H     5.877000000    -0.406000000     0.727000000
C     7.349000000    -3.294000000    -0.170000000
H     7.298000000    -4.315000000     0.201000000
C     8.133000000    -2.846000000    -1.204000000
H     8.781000000    -3.522000000    -1.757000000
C     8.095000000    -1.514000000    -1.588000000
H     8.826000000    -1.117000000    -2.288000000
C     7.250000000    -0.678000000    -0.901000000
O     7.237000000     0.695000000    -1.054000000
C     6.110000000     1.420000000    -1.247000000
C     5.897000000     2.645000000    -0.671000000
H     6.608000000     3.101000000     0.012000000
C     4.659000000     3.295000000    -0.889000000
O     4.482000000     4.444000000    -0.232000000
C     3.606000000     5.427000000    -0.670000000
C     3.666000000     5.866000000    -1.978000000
H     4.488000000     5.525000000    -2.602000000
C     2.649000000     6.567000000    -2.543000000
H     2.754000000     6.906000000    -3.570000000
C     1.549000000     6.919000000    -1.769000000
H     0.735000000     7.510000000    -2.183000000
C     1.515000000     6.579000000    -0.425000000
C     2.513000000     5.753000000     0.117000000
H     2.426000000     5.384000000     1.136000000
O     4.913000000     5.702000000     5.466000000
H     4.484000000     6.244000000     6.129000000
H     4.214000000     5.477000000     4.852000000
O     1.512000000     8.925000000     3.217000000
H     1.549000000     8.088000000     2.754000000
H     2.111000000     8.817000000     3.956000000
O     0.128000000     5.466000000     5.330000000
H     0.426000000     5.046000000     4.523000000
H     0.578000000     4.990000000     6.028000000
O     0.216000000     1.756000000     4.918000000
H     0.385000000     0.970000000     4.399000000
H     0.338000000     2.480000000     4.304000000
O     0.708000000    -0.605000000     3.510000000
H     0.778000000    -0.588000000     2.555000000
H     1.614000000    -0.645000000     3.816000000
O     4.323000000    -1.473000000     6.627000000
H     3.721000000    -0.731000000     6.569000000
H     4.904000000    -1.369000000     5.874000000
O     3.267000000     8.155000000     5.170000000
H     3.234000000     7.436000000     4.539000000
H     3.045000000     7.748000000     6.008000000
O    -2.783000000     8.309000000     3.986000000
H    -2.620000000     7.374000000     4.113000000
H    -3.563000000     8.489000000     4.511000000
O     5.503000000     3.184000000     6.811000000
H     4.750000000     3.426000000     6.272000000
H     6.254000000     3.262000000     6.224000000
O     3.008000000     3.228000000     5.327000000
H     2.758000000     3.700000000     4.532000000
H     2.227000000     2.727000000     5.562000000
O     4.988000000     7.126000000     2.031000000
H     5.824000000     6.715000000     2.251000000
H     5.054000000     7.320000000     1.096000000
O     0.177000000     3.684000000     7.595000000
H    -0.685000000     3.680000000     7.178000000
H     0.032000000     3.273000000     8.447000000
O     7.016000000     3.142000000     4.567000000
H     7.834000000     3.287000000     4.091000000
H     6.330000000     3.339000000     3.930000000
O     3.612000000     0.328000000     4.021000000
H     3.307000000     1.123000000     3.584000000
H     3.233000000     0.377000000     4.899000000
O     5.467000000     3.535000000     2.430000000
H     4.510000000     3.544000000     2.422000000
H     5.717000000     3.988000000     1.625000000
O     2.598000000     6.185000000     3.454000000
H     2.232000000     5.408000000     3.031000000
H     3.304000000     6.464000000     2.872000000
O     0.021000000     0.459000000     7.307000000
H     0.616000000     1.019000000     7.805000000
H    -0.170000000     0.958000000     6.513000000
O     3.139000000     0.866000000     6.788000000
H     3.877000000     1.473000000     6.724000000
H     2.822000000     0.968000000     7.685000000
O    -0.849000000     7.675000000     6.663000000
H    -1.086000000     7.258000000     7.491000000
H    -0.637000000     6.945000000     6.080000000
