201
-1223.75309
C    -2.994000000    -1.569000000     4.093000000
H    -2.811000000    -2.616000000     3.865000000
C    -3.534000000    -0.704000000     3.043000000
C    -3.822000000     0.599000000     3.307000000
H    -4.075000000     1.312000000     2.527000000
C    -3.791000000    -1.248000000     1.619000000
O    -3.914000000    -2.664000000     1.542000000
H    -2.943000000    -0.911000000     1.004000000
O    -4.978000000    -0.605000000     1.013000000
C    -4.915000000    -0.168000000    -0.314000000
C    -4.568000000     1.152000000    -0.441000000
H    -4.683000000     1.815000000     0.413000000
C    -4.057000000     1.625000000    -1.701000000
O    -3.623000000     2.933000000    -1.742000000
C    -3.847000000     0.772000000    -2.769000000
C    -3.389000000     1.214000000    -4.103000000
H    -3.863000000     0.565000000    -4.842000000
C    -1.951000000     1.186000000    -4.247000000
C    -1.289000000     0.169000000    -4.844000000
H    -1.780000000    -0.682000000    -5.310000000
H    -3.751000000     2.227000000    -4.291000000
C    -4.173000000    -0.598000000    -2.564000000
H    -4.016000000    -1.280000000    -3.396000000
C    -4.671000000    -1.117000000    -1.365000000
C    -4.853000000    -2.610000000    -1.153000000
H    -5.147000000    -3.016000000    -2.123000000
H    -5.632000000    -2.661000000    -0.389000000
C    -3.588000000    -3.285000000    -0.772000000
C    -2.826000000    -3.834000000    -1.735000000
H    -3.120000000    -3.768000000    -2.779000000
C    -3.206000000    -3.322000000     0.616000000
C    -1.941000000    -3.866000000     0.932000000
H    -1.742000000    -3.798000000     1.999000000
C    -1.102000000    -4.408000000    -0.086000000
O     0.108000000    -4.846000000     0.263000000
C     1.221000000    -4.001000000     0.057000000
C     2.244000000    -3.955000000     1.216000000
C     3.654000000    -3.930000000     1.066000000
H     4.050000000    -3.918000000     0.054000000
C     1.727000000    -3.991000000     2.526000000
H     0.666000000    -3.892000000     2.738000000
O     1.864000000    -4.550000000    -1.165000000
H     0.871000000    -2.995000000    -0.218000000
C    -1.500000000    -4.367000000    -1.429000000
C    -0.628000000    -4.899000000    -2.529000000
H    -1.230000000    -5.177000000    -3.397000000
H    -0.085000000    -5.808000000    -2.262000000
C     0.466000000    -3.861000000    -2.956000000
C     0.180000000    -2.942000000    -3.927000000
H    -0.745000000    -3.002000000    -4.495000000
C     1.654000000    -3.762000000    -2.230000000
C     2.540000000    -2.740000000    -2.455000000
H     3.416000000    -2.528000000    -1.848000000
C     2.330000000    -1.915000000    -3.617000000
O     3.161000000    -0.866000000    -3.765000000
C     2.748000000     0.269000000    -3.093000000
C     3.748000000     0.915000000    -2.144000000
C     4.887000000     0.226000000    -1.693000000
H     5.096000000    -0.816000000    -1.922000000
C     3.537000000     2.210000000    -1.658000000
H     2.664000000     2.807000000    -1.910000000
O     2.271000000     1.190000000    -4.096000000
H     1.942000000     0.014000000    -2.389000000
C     1.155000000    -2.075000000    -4.434000000
C     0.843000000    -0.982000000    -5.447000000
H     0.302000000    -1.480000000    -6.254000000
H     1.790000000    -0.638000000    -5.867000000
C     0.131000000     0.207000000    -4.890000000
C     0.890000000     1.269000000    -4.318000000
C     0.224000000     2.327000000    -3.748000000
H     0.781000000     3.132000000    -3.275000000
C    -1.203000000     2.265000000    -3.750000000
O    -1.864000000     3.322000000    -3.118000000
C    -2.213000000     3.181000000    -1.652000000
H    -1.731000000     2.317000000    -1.172000000
C    -2.010000000     4.413000000    -0.846000000
C    -2.714000000     4.661000000     0.261000000
H    -3.574000000     4.079000000     0.584000000
C    -0.840000000     5.153000000    -1.197000000
H    -0.188000000     4.926000000    -2.037000000
C    -0.570000000     6.253000000    -0.456000000
O     0.521000000     7.039000000    -0.827000000
C    -1.324000000     6.582000000     0.665000000
H    -1.011000000     7.417000000     1.288000000
C    -2.366000000     5.754000000     1.052000000
O    -3.105000000     6.228000000     2.150000000
C    -3.974000000     5.452000000     2.909000000
C    -3.484000000     4.320000000     3.587000000
H    -2.425000000     4.077000000     3.581000000
C    -5.347000000     5.493000000     2.621000000
H    -5.727000000     6.296000000     1.994000000
C    -6.215000000     4.588000000     3.167000000
H    -7.272000000     4.755000000     2.976000000
C    -5.733000000     3.543000000     3.968000000
H    -6.344000000     2.781000000     4.447000000
C    -4.381000000     3.373000000     4.056000000
O    -3.979000000     2.334000000     4.872000000
C    -3.608000000     1.069000000     4.585000000
C    -3.139000000     0.241000000     5.605000000
H    -2.907000000     0.686000000     6.570000000
C    -2.865000000    -1.103000000     5.369000000
O    -2.198000000    -1.878000000     6.310000000
C    -1.471000000    -2.992000000     5.999000000
C    -0.113000000    -2.851000000     5.636000000
H     0.279000000    -1.837000000     5.655000000
C    -2.057000000    -4.287000000     5.980000000
H    -3.101000000    -4.304000000     6.279000000
C    -1.179000000    -5.401000000     5.733000000
H    -1.586000000    -6.408000000     5.762000000
C     0.118000000    -5.209000000     5.330000000
H     0.736000000    -6.093000000     5.203000000
C     0.715000000    -3.983000000     5.266000000
O     2.035000000    -3.796000000     4.843000000
C     2.563000000    -3.981000000     3.576000000
C     3.886000000    -3.898000000     3.414000000
H     4.417000000    -3.835000000     4.360000000
C     4.483000000    -3.907000000     2.153000000
O     5.905000000    -3.788000000     1.984000000
C     6.549000000    -3.165000000     0.960000000
C     6.436000000    -1.771000000     0.722000000
H     5.838000000    -1.212000000     1.438000000
C     7.553000000    -3.878000000     0.271000000
H     7.712000000    -4.943000000     0.418000000
C     8.242000000    -3.212000000    -0.805000000
H     9.040000000    -3.705000000    -1.354000000
C     8.007000000    -1.855000000    -1.084000000
H     8.640000000    -1.392000000    -1.836000000
C     7.098000000    -1.158000000    -0.301000000
O     6.959000000     0.226000000    -0.396000000
C     5.788000000     0.809000000    -0.877000000
C     5.678000000     2.170000000    -0.629000000
H     6.393000000     2.611000000     0.061000000
C     4.498000000     2.855000000    -0.886000000
O     4.303000000     4.159000000    -0.512000000
C     3.657000000     5.157000000    -1.190000000
C     4.193000000     5.716000000    -2.341000000
H     5.118000000     5.330000000    -2.762000000
C     3.589000000     6.920000000    -2.835000000
H     3.995000000     7.482000000    -3.672000000
C     2.350000000     7.264000000    -2.263000000
H     1.858000000     8.196000000    -2.530000000
C     1.777000000     6.575000000    -1.234000000
C     2.425000000     5.473000000    -0.698000000
H     2.072000000     4.822000000     0.097000000
O     3.612000000     6.589000000     6.511000000
H     3.160000000     7.165000000     5.894000000
H     2.989000000     6.468000000     7.227000000
O     1.392000000     8.443000000     1.799000000
H     1.374000000     7.553000000     2.151000000
H     2.300000000     8.576000000     1.529000000
O    -0.265000000     4.313000000     5.334000000
H     0.354000000     3.767000000     4.849000000
H    -0.897000000     3.693000000     5.698000000
O     0.379000000     0.966000000     4.916000000
H     1.098000000     0.428000000     4.585000000
H     0.404000000     1.758000000     4.378000000
O    -0.484000000    -1.457000000     2.710000000
H    -1.327000000    -1.010000000     2.785000000
H     0.030000000    -0.903000000     2.122000000
O     2.473000000    -0.852000000     4.353000000
H     2.246000000    -1.658000000     3.891000000
H     3.033000000    -0.374000000     3.741000000
O     2.285000000     8.391000000     4.783000000
H     2.020000000     7.811000000     4.069000000
H     1.466000000     8.780000000     5.091000000
O     5.912000000     4.045000000     7.088000000
H     5.035000000     4.009000000     6.706000000
H     6.484000000     3.693000000     6.406000000
O     3.851000000     2.875000000     5.563000000
H     4.178000000     2.067000000     5.166000000
H     3.243000000     3.231000000     4.915000000
O     6.599000000     6.943000000     3.564000000
H     5.864000000     6.511000000     3.130000000
H     6.546000000     6.651000000     4.474000000
O    -0.480000000     2.077000000     7.427000000
H    -0.337000000     1.648000000     6.583000000
H     0.395000000     2.330000000     7.719000000
O     6.829000000     2.635000000     2.935000000
H     7.588000000     2.738000000     2.361000000
H     6.497000000     3.525000000     3.055000000
O     4.603000000     0.669000000     3.291000000
H     4.110000000     1.476000000     3.142000000
H     5.497000000     0.881000000     3.021000000
O     4.839000000     4.770000000     2.457000000
H     4.273000000     4.011000000     2.598000000
H     5.050000000     4.741000000     1.524000000
O     7.463000000     0.173000000     5.246000000
H     6.772000000     0.612000000     4.750000000
H     8.232000000     0.731000000     5.132000000
O     2.103000000     6.061000000     3.034000000
H     2.066000000     5.154000000     3.336000000
H     3.032000000     6.288000000     3.072000000
O     2.310000000    -0.086000000     7.051000000
H     2.297000000    -0.670000000     6.293000000
H     2.593000000     0.758000000     6.698000000
O     2.353000000     3.005000000     8.878000000
H     2.934000000     2.318000000     8.551000000
H     2.008000000     2.657000000     9.700000000
O    -0.475000000     5.598000000     7.640000000
H    -1.236000000     5.202000000     8.066000000
H    -0.487000000     5.244000000     6.751000000
