201
-1239.14021
C    -2.918000000    -2.630000000     3.622000000
H    -3.132000000    -3.659000000     3.347000000
C    -3.016000000    -1.562000000     2.729000000
C    -2.506000000    -0.314000000     3.073000000
H    -2.545000000     0.546000000     2.409000000
C    -3.405000000    -1.790000000     1.303000000
O    -3.826000000    -3.157000000     0.952000000
H    -2.561000000    -1.520000000     0.651000000
O    -4.517000000    -0.941000000     0.919000000
C    -4.555000000    -0.235000000    -0.290000000
C    -4.286000000     1.115000000    -0.239000000
H    -4.301000000     1.652000000     0.706000000
C    -3.890000000     1.795000000    -1.387000000
O    -3.573000000     3.085000000    -1.255000000
C    -3.741000000     1.069000000    -2.593000000
C    -3.489000000     1.900000000    -3.819000000
H    -4.059000000     1.451000000    -4.635000000
C    -1.978000000     1.992000000    -4.160000000
C    -1.274000000     0.954000000    -4.792000000
H    -1.840000000     0.144000000    -5.247000000
H    -3.937000000     2.890000000    -3.710000000
C    -4.222000000    -0.213000000    -2.675000000
H    -4.193000000    -0.725000000    -3.634000000
C    -4.533000000    -0.961000000    -1.500000000
C    -4.748000000    -2.448000000    -1.750000000
H    -5.094000000    -2.667000000    -2.762000000
H    -5.560000000    -2.778000000    -1.097000000
C    -3.481000000    -3.266000000    -1.426000000
C    -2.610000000    -3.504000000    -2.465000000
H    -2.932000000    -3.215000000    -3.463000000
C    -3.210000000    -3.745000000    -0.145000000
C    -2.010000000    -4.492000000     0.061000000
H    -1.641000000    -4.746000000     1.051000000
C    -1.248000000    -4.770000000    -1.053000000
O    -0.004000000    -5.256000000    -0.829000000
C     0.952000000    -4.247000000    -0.518000000
C     1.652000000    -4.396000000     0.897000000
C     2.870000000    -3.726000000     1.103000000
H     3.381000000    -3.119000000     0.360000000
C     1.079000000    -5.237000000     1.904000000
H     0.175000000    -5.830000000     1.790000000
O     1.937000000    -4.126000000    -1.582000000
H     0.376000000    -3.313000000    -0.583000000
C    -1.487000000    -4.293000000    -2.273000000
C    -0.441000000    -4.541000000    -3.403000000
H    -0.923000000    -4.569000000    -4.382000000
H    -0.103000000    -5.558000000    -3.191000000
C     0.614000000    -3.371000000    -3.497000000
C     0.377000000    -2.406000000    -4.436000000
H    -0.451000000    -2.376000000    -5.139000000
C     1.721000000    -3.233000000    -2.598000000
C     2.511000000    -2.062000000    -2.677000000
H     3.327000000    -1.918000000    -1.974000000
C     2.273000000    -1.160000000    -3.626000000
O     3.076000000    -0.028000000    -3.627000000
C     2.586000000     1.166000000    -3.167000000
C     3.700000000     1.861000000    -2.329000000
C     4.252000000     1.227000000    -1.197000000
H     3.929000000     0.202000000    -1.031000000
C     4.032000000     3.236000000    -2.536000000
H     3.626000000     3.786000000    -3.381000000
O     2.162000000     1.982000000    -4.215000000
H     1.786000000     0.912000000    -2.457000000
C     1.200000000    -1.288000000    -4.532000000
C     0.911000000    -0.240000000    -5.508000000
H     0.298000000    -0.597000000    -6.338000000
H     1.797000000     0.191000000    -5.980000000
C     0.108000000     0.890000000    -4.806000000
C     0.832000000     2.011000000    -4.270000000
C     0.172000000     3.032000000    -3.537000000
H     0.726000000     3.815000000    -3.025000000
C    -1.215000000     3.031000000    -3.545000000
O    -1.883000000     3.892000000    -2.748000000
C    -2.131000000     3.427000000    -1.445000000
H    -1.558000000     2.494000000    -1.341000000
C    -1.733000000     4.498000000    -0.483000000
C    -2.236000000     4.487000000     0.786000000
H    -3.072000000     3.832000000     1.017000000
C    -0.637000000     5.313000000    -0.808000000
H    -0.063000000     5.163000000    -1.719000000
C    -0.272000000     6.279000000     0.107000000
O     0.896000000     7.066000000    -0.010000000
C    -0.848000000     6.342000000     1.354000000
H    -0.500000000     7.139000000     2.007000000
C    -1.793000000     5.405000000     1.736000000
O    -2.394000000     5.559000000     2.987000000
C    -2.897000000     4.463000000     3.652000000
C    -2.014000000     3.432000000     3.893000000
H    -0.991000000     3.610000000     3.571000000
C    -4.253000000     4.421000000     3.938000000
H    -4.911000000     5.239000000     3.659000000
C    -4.815000000     3.215000000     4.528000000
H    -5.892000000     3.205000000     4.677000000
C    -3.906000000     2.151000000     4.755000000
H    -4.384000000     1.250000000     5.132000000
C    -2.537000000     2.239000000     4.373000000
O    -1.707000000     1.200000000     4.642000000
C    -2.005000000    -0.100000000     4.332000000
C    -1.994000000    -1.115000000     5.256000000
H    -1.490000000    -1.006000000     6.213000000
C    -2.373000000    -2.425000000     4.883000000
O    -2.237000000    -3.464000000     5.795000000
C    -1.752000000    -4.751000000     5.531000000
C    -0.657000000    -4.897000000     4.675000000
H    -0.238000000    -4.047000000     4.144000000
C    -2.330000000    -5.844000000     6.170000000
H    -3.122000000    -5.651000000     6.889000000
C    -1.568000000    -7.107000000     6.103000000
H    -1.963000000    -7.960000000     6.648000000
C    -0.505000000    -7.238000000     5.294000000
H    -0.012000000    -8.199000000     5.173000000
C    -0.001000000    -6.151000000     4.582000000
O     1.314000000    -6.173000000     4.089000000
C     1.828000000    -5.393000000     3.088000000
C     2.973000000    -4.686000000     3.377000000
H     3.480000000    -4.744000000     4.337000000
C     3.522000000    -3.858000000     2.351000000
O     4.529000000    -3.036000000     2.700000000
C     5.348000000    -2.254000000     1.938000000
C     5.151000000    -0.853000000     1.891000000
H     4.551000000    -0.328000000     2.630000000
C     6.140000000    -2.867000000     0.948000000
H     6.190000000    -3.952000000     0.906000000
C     6.751000000    -2.080000000     0.044000000
H     7.407000000    -2.513000000    -0.707000000
C     6.618000000    -0.709000000     0.081000000
H     7.165000000    -0.111000000    -0.644000000
C     5.775000000    -0.055000000     0.923000000
O     5.526000000     1.327000000     0.851000000
C     5.077000000     1.899000000    -0.330000000
C     5.290000000     3.295000000    -0.537000000
H     6.006000000     3.806000000     0.101000000
C     4.819000000     3.874000000    -1.657000000
O     5.053000000     5.264000000    -1.765000000
C     4.008000000     6.272000000    -1.868000000
C     4.013000000     7.283000000    -2.840000000
H     4.806000000     7.423000000    -3.571000000
C     2.897000000     8.090000000    -2.917000000
H     2.812000000     8.903000000    -3.634000000
C     1.815000000     7.967000000    -2.039000000
H     0.999000000     8.684000000    -2.068000000
C     1.877000000     7.032000000    -1.012000000
C     2.977000000     6.099000000    -0.979000000
H     3.051000000     5.340000000    -0.204000000
O    -0.900000000     4.780000000     7.102000000
H    -1.217000000     3.884000000     6.988000000
H    -0.250000000     4.716000000     7.802000000
O     0.752000000     0.398000000     6.325000000
H     0.910000000    -0.472000000     6.691000000
H     1.340000000     0.452000000     5.572000000
O     3.632000000    -0.888000000     5.823000000
H     3.305000000    -0.274000000     5.166000000
H     4.491000000    -1.155000000     5.495000000
O     0.687000000     6.307000000     5.455000000
H    -0.061000000     5.791000000     5.756000000
H     0.363000000     7.207000000     5.429000000
O     2.796000000     4.097000000     6.328000000
H     2.695000000     3.526000000     5.566000000
H     2.246000000     4.856000000     6.134000000
O     1.524000000     1.673000000     8.541000000
H     1.190000000     1.083000000     7.865000000
H     2.410000000     1.891000000     8.253000000
O     2.624000000     5.611000000     3.605000000
H     1.969000000     5.863000000     4.256000000
H     2.479000000     4.675000000     3.469000000
O     1.789000000    -1.979000000     7.506000000
H     2.409000000    -1.502000000     6.955000000
H     1.977000000    -2.902000000     7.335000000
O     3.239000000     6.766000000     7.676000000
H     3.487000000     6.225000000     6.926000000
H     3.398000000     7.664000000     7.387000000
O     2.196000000     8.334000000     2.760000000
H     2.643000000     8.368000000     1.915000000
H     2.298000000     7.426000000     3.048000000
O     7.367000000     0.608000000     3.818000000
H     7.844000000     1.431000000     3.923000000
H     6.451000000     0.841000000     3.969000000
O     6.784000000     4.089000000     6.149000000
H     7.047000000     3.545000000     5.406000000
H     7.153000000     4.951000000     5.957000000
O     6.527000000    -0.421000000     7.138000000
H     7.381000000    -0.039000000     6.935000000
H     6.426000000    -1.132000000     6.506000000
O     4.741000000     6.007000000     5.287000000
H     4.847000000     5.125000000     5.644000000
H     4.167000000     5.892000000     4.530000000
O     3.860000000     2.990000000     8.705000000
H     3.552000000     3.565000000     8.005000000
H     3.845000000     3.539000000     9.489000000
O     5.204000000     1.567000000     5.100000000
H     4.314000000     1.802000000     4.834000000
H     5.218000000     1.716000000     6.045000000
O    -1.437000000     2.016000000     7.299000000
H    -1.609000000     1.231000000     7.820000000
H    -0.671000000     1.791000000     6.772000000
O     5.433000000     3.481000000     2.487000000
H     5.625000000     2.553000000     2.621000000
H     4.503000000     3.565000000     2.696000000
O     7.101000000     5.853000000     2.589000000
H     6.301000000     5.328000000     2.595000000
H     7.405000000     5.837000000     3.496000000
