201
-1226.62045
C    -3.339000000    -2.655000000     3.674000000
H    -3.344000000    -3.658000000     3.255000000
C    -3.628000000    -1.510000000     2.836000000
C    -3.532000000    -0.272000000     3.391000000
H    -3.650000000     0.603000000     2.757000000
C    -3.632000000    -1.598000000     1.348000000
O    -4.001000000    -2.922000000     0.999000000
H    -2.648000000    -1.248000000     1.003000000
O    -4.618000000    -0.658000000     0.819000000
C    -4.465000000    -0.092000000    -0.421000000
C    -4.124000000     1.189000000    -0.361000000
H    -4.038000000     1.666000000     0.612000000
C    -3.913000000     1.883000000    -1.509000000
O    -3.446000000     3.176000000    -1.397000000
C    -3.848000000     1.277000000    -2.756000000
C    -3.405000000     2.018000000    -4.059000000
H    -3.793000000     1.537000000    -4.960000000
C    -1.883000000     2.006000000    -4.226000000
C    -1.245000000     0.845000000    -4.675000000
H    -1.807000000    -0.049000000    -4.935000000
H    -3.863000000     3.009000000    -4.033000000
C    -4.145000000    -0.110000000    -2.808000000
H    -4.182000000    -0.668000000    -3.740000000
C    -4.460000000    -0.808000000    -1.612000000
C    -4.711000000    -2.294000000    -1.614000000
H    -5.113000000    -2.589000000    -2.586000000
H    -5.620000000    -2.578000000    -1.078000000
C    -3.484000000    -3.095000000    -1.280000000
C    -2.556000000    -3.479000000    -2.293000000
H    -2.698000000    -3.158000000    -3.322000000
C    -3.257000000    -3.502000000     0.020000000
C    -2.150000000    -4.328000000     0.335000000
H    -1.987000000    -4.547000000     1.387000000
C    -1.213000000    -4.592000000    -0.662000000
O    -0.002000000    -5.063000000    -0.275000000
C     1.036000000    -4.029000000    -0.149000000
C     1.875000000    -4.015000000     1.147000000
C     3.041000000    -3.297000000     1.283000000
H     3.267000000    -2.684000000     0.415000000
C     1.385000000    -4.674000000     2.245000000
H     0.406000000    -5.144000000     2.196000000
O     1.902000000    -4.001000000    -1.251000000
H     0.497000000    -3.072000000    -0.206000000
C    -1.419000000    -4.188000000    -1.941000000
C    -0.390000000    -4.580000000    -3.030000000
H    -0.872000000    -4.728000000    -3.999000000
H     0.272000000    -5.404000000    -2.757000000
C     0.567000000    -3.425000000    -3.122000000
C     0.245000000    -2.510000000    -4.080000000
H    -0.634000000    -2.619000000    -4.710000000
C     1.702000000    -3.256000000    -2.359000000
C     2.578000000    -2.189000000    -2.584000000
H     3.513000000    -2.028000000    -2.053000000
C     2.342000000    -1.316000000    -3.640000000
O     3.284000000    -0.281000000    -3.730000000
C     2.780000000     1.003000000    -3.292000000
C     3.856000000     1.777000000    -2.573000000
C     4.636000000     1.151000000    -1.581000000
H     4.498000000     0.081000000    -1.447000000
C     4.019000000     3.133000000    -2.759000000
H     3.402000000     3.684000000    -3.464000000
O     2.251000000     1.840000000    -4.381000000
H     2.057000000     0.840000000    -2.478000000
C     1.167000000    -1.475000000    -4.342000000
C     0.840000000    -0.454000000    -5.434000000
H     0.063000000    -0.926000000    -6.039000000
H     1.664000000    -0.201000000    -6.106000000
C     0.166000000     0.828000000    -4.867000000
C     0.895000000     1.935000000    -4.458000000
C     0.295000000     3.054000000    -3.879000000
H     0.831000000     3.834000000    -3.344000000
C    -1.059000000     3.052000000    -3.655000000
O    -1.556000000     3.931000000    -2.710000000
C    -1.962000000     3.406000000    -1.399000000
H    -1.422000000     2.484000000    -1.139000000
C    -1.523000000     4.381000000    -0.327000000
C    -2.299000000     4.529000000     0.848000000
H    -3.336000000     4.205000000     0.884000000
C    -0.227000000     4.964000000    -0.455000000
H     0.254000000     4.888000000    -1.427000000
C     0.169000000     5.881000000     0.530000000
O     1.305000000     6.625000000     0.409000000
C    -0.530000000     5.942000000     1.776000000
H    -0.157000000     6.644000000     2.518000000
C    -1.754000000     5.277000000     1.943000000
O    -2.594000000     5.398000000     3.106000000
C    -3.439000000     4.410000000     3.571000000
C    -2.846000000     3.349000000     4.246000000
H    -1.774000000     3.193000000     4.326000000
C    -4.878000000     4.473000000     3.524000000
H    -5.382000000     5.304000000     3.037000000
C    -5.621000000     3.472000000     4.110000000
H    -6.705000000     3.539000000     4.164000000
C    -5.018000000     2.372000000     4.688000000
H    -5.659000000     1.568000000     5.040000000
C    -3.623000000     2.284000000     4.803000000
O    -3.076000000     1.122000000     5.336000000
C    -3.257000000    -0.139000000     4.754000000
C    -2.798000000    -1.202000000     5.541000000
H    -2.439000000    -1.022000000     6.551000000
C    -3.040000000    -2.498000000     5.073000000
O    -2.627000000    -3.556000000     5.885000000
C    -1.882000000    -4.697000000     5.414000000
C    -0.586000000    -4.477000000     4.984000000
H    -0.248000000    -3.447000000     4.902000000
C    -2.379000000    -5.995000000     5.508000000
H    -3.354000000    -6.196000000     5.944000000
C    -1.558000000    -7.128000000     5.336000000
H    -1.993000000    -8.117000000     5.448000000
C    -0.229000000    -6.893000000     4.898000000
H     0.332000000    -7.792000000     4.655000000
C     0.245000000    -5.544000000     4.777000000
O     1.602000000    -5.323000000     4.626000000
C     2.099000000    -4.711000000     3.455000000
C     3.359000000    -4.121000000     3.481000000
H     3.924000000    -4.229000000     4.403000000
C     3.920000000    -3.482000000     2.375000000
O     5.108000000    -2.791000000     2.571000000
C     5.835000000    -2.179000000     1.527000000
C     5.942000000    -0.744000000     1.570000000
H     5.439000000    -0.216000000     2.376000000
C     6.629000000    -2.936000000     0.653000000
H     6.648000000    -4.019000000     0.736000000
C     7.358000000    -2.251000000    -0.348000000
H     7.929000000    -2.831000000    -1.069000000
C     7.238000000    -0.869000000    -0.506000000
H     7.759000000    -0.411000000    -1.343000000
C     6.466000000    -0.124000000     0.392000000
O     6.385000000     1.237000000     0.246000000
C     5.687000000     1.786000000    -0.841000000
C     5.935000000     3.095000000    -1.203000000
H     6.797000000     3.597000000    -0.770000000
C     5.047000000     3.774000000    -2.084000000
O     5.106000000     5.120000000    -2.235000000
C     4.071000000     5.920000000    -1.951000000
C     3.695000000     6.797000000    -3.019000000
H     4.246000000     6.726000000    -3.953000000
C     2.483000000     7.463000000    -2.894000000
H     2.120000000     8.046000000    -3.737000000
C     1.836000000     7.616000000    -1.663000000
H     0.940000000     8.226000000    -1.577000000
C     2.177000000     6.689000000    -0.673000000
C     3.231000000     5.758000000    -0.847000000
H     3.350000000     4.941000000    -0.140000000
O     9.104000000     1.800000000     0.852000000
H     9.762000000     1.293000000     1.327000000
H     8.345000000     1.220000000     0.802000000
O     2.742000000    -0.244000000     7.216000000
H     3.298000000    -0.456000000     6.467000000
H     2.326000000     0.585000000     6.979000000
O     4.145000000    -1.498000000     5.141000000
H     3.829000000    -0.858000000     4.504000000
H     5.096000000    -1.501000000     5.027000000
O     0.817000000     4.630000000     5.698000000
H     0.084000000     5.225000000     5.536000000
H     1.113000000     4.851000000     6.581000000
O     1.557000000     1.889000000     5.963000000
H     2.218000000     1.819000000     5.274000000
H     1.303000000     2.812000000     5.959000000
O     1.527000000    -0.216000000     9.695000000
H     1.814000000    -1.117000000     9.845000000
H     1.928000000     0.026000000     8.860000000
O     3.380000000     4.822000000     4.638000000
H     2.563000000     4.470000000     4.990000000
H     3.557000000     4.287000000     3.864000000
O     2.503000000    -3.192000000     6.690000000
H     2.994000000    -2.699000000     6.032000000
H     1.725000000    -2.660000000     6.856000000
O     5.778000000     1.093000000     7.980000000
H     4.953000000     1.425000000     8.332000000
H     5.739000000     1.295000000     7.045000000
O     2.422000000     7.521000000     3.991000000
H     2.747000000     7.463000000     3.093000000
H     2.617000000     6.665000000     4.372000000
O     7.942000000     0.416000000     3.896000000
H     7.472000000    -0.340000000     3.544000000
H     7.284000000     0.892000000     4.403000000
O     5.794000000     4.610000000     6.111000000
H     4.874000000     4.576000000     5.849000000
H     6.109000000     5.449000000     5.774000000
O     3.354000000     2.768000000     8.252000000
H     2.512000000     2.729000000     8.707000000
H     3.123000000     2.849000000     7.327000000
O     5.869000000     1.873000000     5.039000000
H     5.024000000     1.612000000     4.674000000
H     5.819000000     2.827000000     5.102000000
O    -1.036000000     1.759000000     7.748000000
H    -0.394000000     1.869000000     7.046000000
H    -0.625000000     2.164000000     8.512000000
O     6.031000000     4.419000000     2.747000000
H     6.599000000     3.701000000     3.028000000
H     5.157000000     4.030000000     2.705000000
O     8.338000000     3.134000000     3.846000000
H     9.215000000     3.424000000     3.594000000
H     8.426000000     2.190000000     3.975000000
O     6.193000000     7.021000000     3.175000000
H     6.119000000     6.098000000     2.934000000
H     5.979000000     7.043000000     4.108000000
O     6.834000000    -2.209000000     5.185000000
H     7.623000000    -2.704000000     5.402000000
H     6.260000000    -2.847000000     4.760000000
