201
-1235.77031
C    -3.273000000    -3.094000000     3.031000000
H    -2.901000000    -4.002000000     2.563000000
C    -3.706000000    -2.021000000     2.281000000
C    -3.908000000    -0.790000000     2.857000000
H    -4.099000000     0.084000000     2.239000000
C    -3.658000000    -2.016000000     0.782000000
O    -3.524000000    -3.310000000     0.227000000
H    -2.743000000    -1.498000000     0.458000000
O    -4.719000000    -1.230000000     0.120000000
C    -4.428000000    -0.441000000    -0.966000000
C    -4.285000000     0.913000000    -0.698000000
H    -4.230000000     1.321000000     0.308000000
C    -3.872000000     1.769000000    -1.717000000
O    -3.749000000     3.114000000    -1.482000000
C    -3.597000000     1.252000000    -2.957000000
C    -2.971000000     2.149000000    -4.042000000
H    -3.158000000     1.602000000    -4.968000000
C    -1.452000000     2.324000000    -3.936000000
C    -0.590000000     1.542000000    -4.745000000
H    -0.976000000     0.628000000    -5.189000000
H    -3.391000000     3.157000000    -4.077000000
C    -3.714000000    -0.138000000    -3.213000000
H    -3.594000000    -0.476000000    -4.239000000
C    -4.133000000    -0.999000000    -2.214000000
C    -4.229000000    -2.492000000    -2.488000000
H    -4.443000000    -2.550000000    -3.557000000
H    -5.048000000    -2.974000000    -1.949000000
C    -2.923000000    -3.123000000    -2.122000000
C    -1.961000000    -3.329000000    -3.157000000
H    -2.081000000    -2.905000000    -4.151000000
C    -2.631000000    -3.569000000    -0.805000000
C    -1.483000000    -4.237000000    -0.497000000
H    -1.151000000    -4.498000000     0.505000000
C    -0.545000000    -4.416000000    -1.498000000
O     0.640000000    -4.921000000    -1.134000000
C     1.812000000    -4.088000000    -0.858000000
C     2.479000000    -4.438000000     0.429000000
C     3.882000000    -4.068000000     0.637000000
H     4.512000000    -3.665000000    -0.152000000
C     1.791000000    -4.900000000     1.540000000
H     0.777000000    -5.289000000     1.506000000
O     2.690000000    -4.053000000    -1.970000000
H     1.540000000    -3.032000000    -0.715000000
C    -0.704000000    -3.901000000    -2.820000000
C     0.362000000    -4.046000000    -3.914000000
H    -0.009000000    -3.913000000    -4.933000000
H     0.914000000    -4.978000000    -3.779000000
C     1.393000000    -2.973000000    -3.730000000
C     1.160000000    -1.784000000    -4.468000000
H     0.239000000    -1.687000000    -5.038000000
C     2.478000000    -3.031000000    -2.868000000
C     3.311000000    -1.897000000    -2.739000000
H     4.071000000    -2.025000000    -1.972000000
C     3.029000000    -0.687000000    -3.386000000
O     3.743000000     0.431000000    -3.011000000
C     3.098000000     1.536000000    -2.430000000
C     3.923000000     2.151000000    -1.286000000
C     4.791000000     1.315000000    -0.555000000
H     4.808000000     0.252000000    -0.781000000
C     3.837000000     3.506000000    -0.931000000
H     3.269000000     4.232000000    -1.507000000
O     2.631000000     2.584000000    -3.338000000
H     2.203000000     1.149000000    -1.922000000
C     1.958000000    -0.663000000    -4.314000000
C     1.609000000     0.527000000    -5.165000000
H     1.144000000     0.229000000    -6.107000000
H     2.611000000     0.842000000    -5.464000000
C     0.762000000     1.599000000    -4.506000000
C     1.305000000     2.608000000    -3.695000000
C     0.519000000     3.473000000    -2.987000000
H     0.939000000     4.289000000    -2.404000000
C    -0.857000000     3.336000000    -3.101000000
O    -1.687000000     4.154000000    -2.404000000
C    -2.341000000     3.510000000    -1.243000000
H    -1.753000000     2.617000000    -0.989000000
C    -2.225000000     4.356000000     0.034000000
C    -3.210000000     4.257000000     1.066000000
H    -3.973000000     3.483000000     1.090000000
C    -1.228000000     5.325000000     0.165000000
H    -0.579000000     5.388000000    -0.705000000
C    -1.187000000     6.189000000     1.318000000
O    -0.109000000     7.013000000     1.428000000
C    -2.188000000     6.120000000     2.251000000
H    -2.259000000     6.876000000     3.029000000
C    -3.158000000     5.124000000     2.174000000
O    -3.895000000     4.845000000     3.302000000
C    -4.710000000     3.770000000     3.402000000
C    -4.213000000     2.689000000     4.116000000
H    -3.281000000     2.683000000     4.676000000
C    -5.985000000     3.780000000     2.847000000
H    -6.451000000     4.613000000     2.327000000
C    -6.812000000     2.672000000     2.934000000
H    -7.802000000     2.612000000     2.490000000
C    -6.255000000     1.533000000     3.644000000
H    -6.868000000     0.640000000     3.733000000
C    -4.925000000     1.556000000     4.193000000
O    -4.438000000     0.460000000     4.824000000
C    -3.943000000    -0.669000000     4.202000000
C    -3.522000000    -1.765000000     4.966000000
H    -3.415000000    -1.625000000     6.038000000
C    -3.161000000    -3.005000000     4.374000000
O    -2.669000000    -4.029000000     5.169000000
C    -1.819000000    -5.001000000     4.639000000
C    -0.441000000    -4.803000000     4.688000000
H    -0.014000000    -3.931000000     5.176000000
C    -2.357000000    -6.154000000     4.042000000
H    -3.386000000    -6.478000000     4.168000000
C    -1.471000000    -7.126000000     3.504000000
H    -1.912000000    -8.063000000     3.172000000
C    -0.133000000    -6.844000000     3.408000000
H     0.577000000    -7.440000000     2.840000000
C     0.373000000    -5.661000000     3.990000000
O     1.744000000    -5.363000000     3.940000000
C     2.451000000    -5.035000000     2.779000000
C     3.808000000    -4.781000000     2.900000000
H     4.423000000    -4.856000000     3.793000000
C     4.549000000    -4.256000000     1.832000000
O     5.910000000    -3.890000000     1.967000000
C     6.417000000    -2.686000000     1.494000000
C     5.833000000    -1.468000000     1.778000000
H     4.922000000    -1.285000000     2.342000000
C     7.533000000    -2.805000000     0.726000000
H     8.092000000    -3.712000000     0.512000000
C     8.118000000    -1.630000000     0.174000000
H     8.802000000    -1.651000000    -0.671000000
C     7.506000000    -0.401000000     0.348000000
H     7.863000000     0.481000000    -0.177000000
C     6.409000000    -0.304000000     1.249000000
O     5.862000000     0.902000000     1.490000000
C     5.461000000     1.805000000     0.579000000
C     5.202000000     3.136000000     0.986000000
H     5.492000000     3.391000000     2.002000000
C     4.479000000     4.019000000     0.182000000
O     4.241000000     5.322000000     0.727000000
C     3.173000000     6.124000000     0.371000000
C     3.393000000     7.016000000    -0.599000000
H     4.298000000     6.904000000    -1.191000000
C     2.407000000     7.854000000    -1.092000000
H     2.602000000     8.483000000    -1.957000000
C     1.230000000     8.022000000    -0.264000000
H     0.485000000     8.763000000    -0.543000000
C     1.019000000     7.037000000     0.673000000
C     1.978000000     6.097000000     1.016000000
H     1.690000000     5.342000000     1.744000000
O     0.684000000    -0.099000000    10.780000000
H     0.817000000    -1.002000000    11.069000000
H     0.672000000    -0.154000000     9.824000000
O     3.693000000    -0.238000000     9.647000000
H     2.923000000     0.077000000     9.175000000
H     4.436000000     0.083000000     9.135000000
O    -0.065000000    -1.421000000     6.946000000
H     0.310000000    -0.784000000     6.338000000
H    -0.877000000    -1.014000000     7.248000000
O     2.030000000     3.765000000     7.260000000
H     2.364000000     4.519000000     6.775000000
H     1.186000000     4.056000000     7.605000000
O     1.663000000     0.981000000     7.606000000
H     1.792000000     0.561000000     6.755000000
H     2.053000000     1.849000000     7.505000000
O     2.234000000    -2.968000000     7.539000000
H     2.517000000    -2.583000000     8.368000000
H     1.376000000    -2.577000000     7.374000000
O    -0.297000000     4.809000000     8.191000000
H    -0.704000000     5.139000000     8.992000000
H    -1.030000000     4.652000000     7.596000000
O     0.568000000     4.681000000     4.147000000
H    -0.073000000     4.647000000     3.437000000
H     0.789000000     3.765000000     4.315000000
O    -1.191000000    -3.852000000     7.972000000
H    -0.909000000    -4.648000000     7.523000000
H    -0.671000000    -3.155000000     7.573000000
O     0.575000000     7.409000000     4.754000000
H     0.839000000     6.624000000     4.274000000
H     1.009000000     7.326000000     5.604000000
O     3.548000000     3.020000000     3.893000000
H     2.757000000     2.837000000     4.400000000
H     3.423000000     2.541000000     3.073000000
O     4.930000000     3.730000000     6.986000000
H     4.022000000     3.427000000     6.979000000
H     4.867000000     4.679000000     6.883000000
O     6.796000000     2.717000000     5.366000000
H     6.232000000     3.233000000     5.943000000
H     6.269000000     1.951000000     5.139000000
O     3.412000000     5.952000000     6.016000000
H     3.343000000     6.011000000     5.063000000
H     3.156000000     6.819000000     6.329000000
O     6.775000000    -0.582000000     6.816000000
H     6.828000000    -1.537000000     6.782000000
H     6.225000000    -0.346000000     6.070000000
O     5.629000000     0.260000000     4.411000000
H     5.771000000     0.159000000     3.469000000
H     4.789000000    -0.168000000     4.574000000
O    -1.442000000     0.783000000     7.850000000
H    -1.644000000     1.442000000     7.185000000
H    -0.510000000     0.902000000     8.031000000
O     4.637000000     5.616000000     3.578000000
H     5.078000000     5.544000000     2.732000000
H     4.344000000     4.726000000     3.773000000
O     3.325000000    -1.693000000     4.363000000
H     3.087000000    -2.601000000     4.551000000
H     2.633000000    -1.175000000     4.773000000
