201
-1228.76447
C    -3.678000000    -2.469000000     2.291000000
H    -3.131000000    -3.337000000     1.931000000
C    -4.270000000    -1.524000000     1.409000000
C    -4.953000000    -0.434000000     1.999000000
H    -5.494000000     0.282000000     1.385000000
C    -3.960000000    -1.473000000    -0.091000000
O    -4.081000000    -2.776000000    -0.642000000
H    -2.906000000    -1.188000000    -0.227000000
O    -4.780000000    -0.527000000    -0.818000000
C    -4.198000000     0.260000000    -1.762000000
C    -3.877000000     1.504000000    -1.398000000
H    -4.240000000     1.782000000    -0.412000000
C    -3.238000000     2.373000000    -2.207000000
O    -2.991000000     3.544000000    -1.676000000
C    -2.722000000     1.946000000    -3.423000000
C    -1.898000000     2.859000000    -4.384000000
H    -2.001000000     2.605000000    -5.441000000
C    -0.421000000     2.828000000    -4.055000000
C     0.424000000     1.919000000    -4.626000000
H    -0.024000000     1.271000000    -5.375000000
H    -2.291000000     3.877000000    -4.423000000
C    -3.038000000     0.632000000    -3.819000000
H    -2.657000000     0.408000000    -4.813000000
C    -3.778000000    -0.220000000    -2.970000000
C    -4.098000000    -1.662000000    -3.331000000
H    -4.181000000    -1.784000000    -4.413000000
H    -5.032000000    -1.997000000    -2.875000000
C    -2.996000000    -2.559000000    -2.853000000
C    -1.868000000    -2.837000000    -3.591000000
H    -1.929000000    -2.417000000    -4.592000000
C    -3.024000000    -3.040000000    -1.515000000
C    -1.990000000    -3.848000000    -1.029000000
H    -2.000000000    -4.365000000    -0.073000000
C    -0.865000000    -4.115000000    -1.848000000
O     0.239000000    -4.782000000    -1.361000000
C     1.380000000    -3.972000000    -0.929000000
C     1.828000000    -4.441000000     0.442000000
C     3.207000000    -4.240000000     0.896000000
H     3.846000000    -3.541000000     0.361000000
C     0.935000000    -5.231000000     1.236000000
H    -0.097000000    -5.394000000     0.936000000
O     2.536000000    -4.002000000    -1.851000000
H     1.049000000    -2.927000000    -0.834000000
C    -0.770000000    -3.541000000    -3.158000000
C     0.458000000    -3.671000000    -4.023000000
H     0.256000000    -3.553000000    -5.090000000
H     0.768000000    -4.718000000    -4.034000000
C     1.576000000    -2.690000000    -3.723000000
C     1.573000000    -1.452000000    -4.429000000
H     0.851000000    -1.271000000    -5.221000000
C     2.555000000    -2.915000000    -2.734000000
C     3.480000000    -1.960000000    -2.431000000
H     4.209000000    -2.017000000    -1.627000000
C     3.468000000    -0.803000000    -3.181000000
O     4.245000000     0.195000000    -2.745000000
C     3.635000000     1.177000000    -2.002000000
C     4.464000000     1.529000000    -0.792000000
C     5.143000000     0.496000000    -0.076000000
H     5.050000000    -0.500000000    -0.503000000
C     4.420000000     2.789000000    -0.226000000
H     3.735000000     3.515000000    -0.657000000
O     3.508000000     2.376000000    -2.782000000
H     2.668000000     0.815000000    -1.622000000
C     2.542000000    -0.549000000    -4.161000000
C     2.601000000     0.746000000    -4.992000000
H     2.197000000     0.589000000    -5.994000000
H     3.647000000     1.061000000    -4.976000000
C     1.733000000     1.779000000    -4.316000000
C     2.228000000     2.557000000    -3.262000000
C     1.375000000     3.520000000    -2.639000000
H     1.642000000     4.086000000    -1.750000000
C     0.066000000     3.673000000    -3.024000000
O    -0.838000000     4.471000000    -2.269000000
C    -1.628000000     3.827000000    -1.186000000
H    -1.100000000     2.871000000    -1.050000000
C    -1.622000000     4.594000000     0.131000000
C    -2.794000000     4.661000000     0.876000000
H    -3.688000000     4.100000000     0.616000000
C    -0.427000000     5.136000000     0.635000000
H     0.540000000     5.152000000     0.139000000
C    -0.454000000     5.660000000     1.975000000
O     0.740000000     5.935000000     2.601000000
C    -1.602000000     5.644000000     2.733000000
H    -1.510000000     6.057000000     3.734000000
C    -2.801000000     5.171000000     2.176000000
O    -3.981000000     5.149000000     2.933000000
C    -5.007000000     4.180000000     2.873000000
C    -4.807000000     2.931000000     3.411000000
H    -3.843000000     2.795000000     3.894000000
C    -6.183000000     4.545000000     2.263000000
H    -6.304000000     5.570000000     1.920000000
C    -7.202000000     3.640000000     2.203000000
H    -8.113000000     3.903000000     1.671000000
C    -7.033000000     2.399000000     2.738000000
H    -7.888000000     1.727000000     2.730000000
C    -5.850000000     2.020000000     3.316000000
O    -5.633000000     0.824000000     3.950000000
C    -5.021000000    -0.264000000     3.361000000
C    -4.394000000    -1.193000000     4.185000000
H    -4.467000000    -1.055000000     5.261000000
C    -3.780000000    -2.285000000     3.674000000
O    -3.336000000    -3.201000000     4.616000000
C    -2.835000000    -4.508000000     4.338000000
C    -1.444000000    -4.716000000     4.182000000
H    -0.745000000    -3.890000000     4.279000000
C    -3.762000000    -5.552000000     4.223000000
H    -4.826000000    -5.367000000     4.349000000
C    -3.338000000    -6.723000000     3.632000000
H    -4.065000000    -7.508000000     3.436000000
C    -2.002000000    -6.944000000     3.309000000
H    -1.761000000    -7.859000000     2.774000000
C    -1.052000000    -5.906000000     3.510000000
O     0.273000000    -6.213000000     3.287000000
C     1.231000000    -5.627000000     2.566000000
C     2.599000000    -5.427000000     2.993000000
H     2.841000000    -5.657000000     4.028000000
C     3.542000000    -4.814000000     2.165000000
O     4.797000000    -4.516000000     2.651000000
C     5.723000000    -3.708000000     2.127000000
C     5.546000000    -2.374000000     2.400000000
H     4.603000000    -1.959000000     2.746000000
C     6.862000000    -4.159000000     1.459000000
H     7.045000000    -5.208000000     1.238000000
C     7.861000000    -3.296000000     1.041000000
H     8.791000000    -3.680000000     0.628000000
C     7.628000000    -1.953000000     1.332000000
H     8.392000000    -1.241000000     1.032000000
C     6.454000000    -1.457000000     1.878000000
O     6.200000000    -0.115000000     2.004000000
C     5.771000000     0.820000000     1.150000000
C     5.938000000     2.102000000     1.517000000
H     6.571000000     2.417000000     2.342000000
C     5.262000000     3.145000000     0.891000000
O     5.182000000     4.407000000     1.395000000
C     4.132000000     5.339000000     1.343000000
C     4.203000000     6.386000000     0.397000000
H     5.080000000     6.601000000    -0.208000000
C     3.098000000     7.263000000     0.259000000
H     3.179000000     8.094000000    -0.436000000
C     1.943000000     7.041000000     0.879000000
H     1.057000000     7.636000000     0.674000000
C     1.911000000     6.087000000     1.875000000
C     3.017000000     5.271000000     2.146000000
H     3.033000000     4.538000000     2.949000000
O     5.361000000     2.029000000     5.999000000
H     5.064000000     2.723000000     6.588000000
H     4.556000000     1.670000000     5.627000000
O     2.402000000    -3.130000000     5.619000000
H     2.732000000    -2.320000000     5.229000000
H     3.162000000    -3.711000000     5.642000000
O     7.949000000     1.883000000     4.972000000
H     7.084000000     2.032000000     5.355000000
H     8.096000000     0.943000000     5.069000000
O     3.024000000     3.220000000     7.972000000
H     2.232000000     3.368000000     8.490000000
H     3.733000000     3.212000000     8.615000000
O     1.129000000    -5.636000000     6.270000000
H     1.447000000    -4.844000000     5.838000000
H     1.155000000    -5.426000000     7.204000000
O     3.486000000    -2.183000000     9.531000000
H     3.806000000    -2.358000000    10.416000000
H     3.873000000    -2.876000000     8.995000000
O     4.551000000     6.063000000     5.027000000
H     3.659000000     5.930000000     5.346000000
H     4.954000000     5.196000000     5.073000000
O    -0.998000000     1.265000000     3.345000000
H    -0.743000000     0.527000000     2.791000000
H    -1.626000000     0.893000000     3.964000000
O     2.157000000     4.929000000     5.862000000
H     2.604000000     4.444000000     6.556000000
H     1.682000000     4.259000000     5.371000000
O    -1.477000000     2.977000000     5.685000000
H    -1.676000000     2.041000000     5.661000000
H    -0.726000000     3.077000000     5.101000000
O     4.753000000    -4.204000000     5.739000000
H     5.370000000    -3.488000000     5.586000000
H     5.010000000    -4.880000000     5.111000000
O    -0.030000000    -2.286000000     6.700000000
H    -0.519000000    -3.096000000     6.554000000
H     0.862000000    -2.491000000     6.418000000
O     6.278000000    -2.090000000     8.660000000
H     5.657000000    -1.504000000     8.227000000
H     7.135000000    -1.697000000     8.493000000
O     6.611000000    -2.424000000     5.675000000
H     6.023000000    -1.758000000     6.030000000
H     7.306000000    -1.926000000     5.245000000
O     1.280000000    -0.938000000     8.910000000
H     2.138000000    -1.249000000     9.201000000
H     1.438000000    -0.589000000     8.032000000
O    -1.172000000     0.139000000     6.068000000
H    -0.806000000    -0.745000000     6.091000000
H    -0.440000000     0.707000000     6.311000000
O     1.312000000     2.835000000     4.368000000
H     2.015000000     2.185000000     4.394000000
H     0.769000000     2.570000000     3.626000000
O     1.590000000     1.087000000     6.949000000
H     2.211000000     1.430000000     7.592000000
H     2.075000000     1.085000000     6.124000000
O     5.008000000    -0.633000000     6.824000000
H     4.940000000     0.285000000     7.089000000
H     4.461000000    -0.696000000     6.040000000
