201
-1231.38098
C    -3.274000000    -2.557000000     3.078000000
H    -3.024000000    -3.523000000     2.647000000
C    -3.608000000    -1.469000000     2.240000000
C    -3.651000000    -0.191000000     2.777000000
H    -3.685000000     0.673000000     2.118000000
C    -3.658000000    -1.715000000     0.761000000
O    -3.802000000    -3.154000000     0.445000000
H    -2.675000000    -1.419000000     0.364000000
O    -4.693000000    -1.000000000     0.087000000
C    -4.298000000    -0.445000000    -1.102000000
C    -4.096000000     0.860000000    -1.010000000
H    -4.298000000     1.309000000    -0.041000000
C    -3.409000000     1.537000000    -2.018000000
O    -3.148000000     2.811000000    -1.754000000
C    -3.255000000     0.963000000    -3.301000000
C    -2.856000000     1.795000000    -4.475000000
H    -3.117000000     1.361000000    -5.442000000
C    -1.380000000     2.014000000    -4.477000000
C    -0.529000000     1.032000000    -5.076000000
H    -0.993000000     0.256000000    -5.679000000
H    -3.317000000     2.777000000    -4.346000000
C    -3.608000000    -0.384000000    -3.409000000
H    -3.348000000    -0.895000000    -4.332000000
C    -4.054000000    -1.126000000    -2.313000000
C    -4.276000000    -2.610000000    -2.345000000
H    -4.562000000    -2.915000000    -3.354000000
H    -5.130000000    -2.756000000    -1.680000000
C    -3.110000000    -3.364000000    -1.873000000
C    -2.098000000    -3.720000000    -2.763000000
H    -2.129000000    -3.314000000    -3.771000000
C    -2.971000000    -3.685000000    -0.525000000
C    -1.914000000    -4.381000000    -0.057000000
H    -1.743000000    -4.627000000     0.988000000
C    -0.888000000    -4.813000000    -0.965000000
O     0.277000000    -5.144000000    -0.437000000
C     1.307000000    -4.129000000    -0.351000000
C     1.971000000    -4.274000000     1.015000000
C     3.263000000    -3.858000000     1.207000000
H     3.810000000    -3.596000000     0.305000000
C     1.261000000    -4.660000000     2.095000000
H     0.267000000    -5.079000000     1.961000000
O     2.242000000    -4.181000000    -1.490000000
H     0.808000000    -3.149000000    -0.324000000
C    -0.988000000    -4.431000000    -2.316000000
C     0.146000000    -4.582000000    -3.332000000
H    -0.310000000    -4.669000000    -4.321000000
H     0.760000000    -5.473000000    -3.186000000
C     1.085000000    -3.384000000    -3.367000000
C     0.972000000    -2.438000000    -4.373000000
H     0.153000000    -2.492000000    -5.085000000
C     2.056000000    -3.218000000    -2.418000000
C     2.912000000    -2.102000000    -2.501000000
H     3.666000000    -1.972000000    -1.729000000
C     2.733000000    -1.119000000    -3.410000000
O     3.564000000    -0.087000000    -3.185000000
C     2.925000000     1.176000000    -2.740000000
C     3.770000000     1.879000000    -1.667000000
C     4.362000000     1.113000000    -0.684000000
H     4.212000000     0.037000000    -0.658000000
C     3.964000000     3.275000000    -1.631000000
H     3.476000000     3.900000000    -2.376000000
O     2.683000000     1.989000000    -3.910000000
H     1.972000000     0.906000000    -2.262000000
C     1.821000000    -1.298000000    -4.449000000
C     1.613000000    -0.198000000    -5.543000000
H     1.241000000    -0.579000000    -6.497000000
H     2.621000000     0.082000000    -5.856000000
C     0.852000000     1.040000000    -4.981000000
C     1.359000000     2.045000000    -4.209000000
C     0.619000000     3.064000000    -3.590000000
H     1.127000000     3.771000000    -2.937000000
C    -0.759000000     2.948000000    -3.690000000
O    -1.432000000     3.829000000    -2.906000000
C    -1.890000000     3.348000000    -1.584000000
H    -1.170000000     2.604000000    -1.210000000
C    -1.908000000     4.414000000    -0.446000000
C    -2.744000000     4.483000000     0.672000000
H    -3.611000000     3.857000000     0.869000000
C    -0.766000000     5.199000000    -0.396000000
H    -0.011000000     5.062000000    -1.167000000
C    -0.541000000     6.128000000     0.575000000
O     0.594000000     6.945000000     0.558000000
C    -1.485000000     6.265000000     1.584000000
H    -1.313000000     7.002000000     2.364000000
C    -2.615000000     5.463000000     1.686000000
O    -3.459000000     5.557000000     2.790000000
C    -4.260000000     4.518000000     3.264000000
C    -3.577000000     3.404000000     3.619000000
H    -2.494000000     3.369000000     3.698000000
C    -5.623000000     4.602000000     3.486000000
H    -6.268000000     5.429000000     3.201000000
C    -6.319000000     3.518000000     4.004000000
H    -7.395000000     3.520000000     4.155000000
C    -5.615000000     2.407000000     4.412000000
H    -6.087000000     1.533000000     4.852000000
C    -4.217000000     2.351000000     4.242000000
O    -3.523000000     1.306000000     4.703000000
C    -3.540000000    -0.015000000     4.153000000
C    -3.320000000    -1.101000000     4.986000000
H    -3.131000000    -0.871000000     6.032000000
C    -3.318000000    -2.361000000     4.422000000
O    -3.151000000    -3.381000000     5.327000000
C    -2.299000000    -4.435000000     5.040000000
C    -0.961000000    -4.244000000     4.945000000
H    -0.594000000    -3.227000000     5.059000000
C    -2.791000000    -5.703000000     5.173000000
H    -3.852000000    -5.843000000     5.362000000
C    -1.929000000    -6.768000000     5.135000000
H    -2.322000000    -7.779000000     5.212000000
C    -0.574000000    -6.609000000     4.945000000
H     0.110000000    -7.448000000     5.045000000
C    -0.101000000    -5.325000000     4.726000000
O     1.256000000    -5.094000000     4.518000000
C     1.913000000    -4.766000000     3.344000000
C     3.302000000    -4.419000000     3.499000000
H     3.759000000    -4.571000000     4.474000000
C     3.963000000    -3.927000000     2.402000000
O     5.320000000    -3.618000000     2.544000000
C     5.974000000    -2.662000000     1.884000000
C     5.355000000    -1.426000000     1.761000000
H     4.318000000    -1.346000000     2.077000000
C     7.289000000    -2.794000000     1.466000000
H     7.817000000    -3.726000000     1.653000000
C     7.934000000    -1.694000000     0.833000000
H     8.955000000    -1.812000000     0.479000000
C     7.328000000    -0.493000000     0.759000000
H     7.933000000     0.259000000     0.259000000
C     6.053000000    -0.295000000     1.299000000
O     5.446000000     0.978000000     1.416000000
C     5.028000000     1.682000000     0.365000000
C     5.271000000     3.023000000     0.324000000
H     5.817000000     3.485000000     1.142000000
C     4.743000000     3.832000000    -0.651000000
O     4.957000000     5.230000000    -0.813000000
C     3.805000000     6.020000000    -0.959000000
C     3.672000000     6.617000000    -2.204000000
H     4.457000000     6.400000000    -2.924000000
C     2.595000000     7.451000000    -2.379000000
H     2.460000000     8.012000000    -3.300000000
C     1.564000000     7.508000000    -1.464000000
H     0.669000000     8.044000000    -1.767000000
C     1.631000000     6.746000000    -0.291000000
C     2.823000000     6.141000000     0.105000000
H     2.896000000     5.718000000     1.104000000
O     4.371000000     3.335000000     9.122000000
H     3.739000000     3.091000000     9.798000000
H     3.929000000     3.136000000     8.297000000
O     5.654000000    -2.412000000     5.839000000
H     5.613000000    -2.998000000     5.083000000
H     5.168000000    -1.634000000     5.566000000
O     5.297000000     0.749000000     7.573000000
H     5.840000000     1.471000000     7.891000000
H     5.524000000     0.669000000     6.646000000
O     2.775000000     7.098000000     3.010000000
H     2.412000000     7.984000000     3.022000000
H     2.010000000     6.527000000     2.937000000
O     2.474000000     7.026000000     6.527000000
H     2.544000000     7.415000000     7.399000000
H     3.352000000     6.695000000     6.341000000
O     4.635000000    -0.167000000     4.589000000
H     3.931000000     0.478000000     4.650000000
H     5.158000000     0.120000000     3.841000000
O     1.294000000    -0.844000000     6.562000000
H     1.709000000    -0.427000000     7.317000000
H     0.892000000    -0.121000000     6.080000000
O     1.228000000     3.622000000     8.676000000
H     1.612000000     4.447000000     8.971000000
H     1.904000000     3.226000000     8.126000000
O     0.640000000     5.139000000     3.798000000
H     0.987000000     4.287000000     4.065000000
H    -0.022000000     5.345000000     4.458000000
O    -2.895000000     5.195000000     6.947000000
H    -3.143000000     4.808000000     7.786000000
H    -2.028000000     4.835000000     6.763000000
O    -0.374000000     2.568000000    10.725000000
H     0.048000000     3.314000000    11.151000000
H    -0.049000000     2.591000000     9.824000000
O     2.772000000     0.483000000     8.934000000
H     3.292000000     0.829000000     8.209000000
H     3.322000000     0.613000000     9.706000000
O     2.124000000    -3.293000000     6.794000000
H     1.758000000    -2.411000000     6.854000000
H     2.318000000    -3.409000000     5.864000000
O    -0.500000000     3.855000000     6.093000000
H    -0.290000000     3.053000000     5.612000000
H     0.352000000     4.214000000     6.341000000
O    -2.172000000     1.635000000     7.421000000
H    -2.053000000     1.248000000     6.553000000
H    -1.815000000     2.520000000     7.339000000
O    -2.083000000    -0.283000000     9.323000000
H    -2.249000000     0.465000000     8.749000000
H    -1.472000000     0.050000000     9.981000000
O     5.317000000     3.268000000     5.357000000
H     5.112000000     3.632000000     4.496000000
H     5.958000000     2.580000000     5.180000000
O     3.642000000     4.405000000     3.252000000
H     3.349000000     5.314000000     3.192000000
H     2.844000000     3.908000000     3.436000000
O     3.117000000     2.782000000     6.790000000
H     2.430000000     2.747000000     6.125000000
H     3.871000000     3.159000000     6.336000000
