201
-1246.41363
C    -4.400000000    -2.032000000     2.489000000
H    -4.376000000    -2.994000000     1.983000000
C    -4.339000000    -0.860000000     1.721000000
C    -4.175000000     0.344000000     2.416000000
H    -3.975000000     1.181000000     1.752000000
C    -4.287000000    -0.906000000     0.190000000
O    -4.737000000    -2.184000000    -0.287000000
H    -3.217000000    -0.845000000    -0.057000000
O    -4.989000000     0.178000000    -0.508000000
C    -4.360000000     0.805000000    -1.581000000
C    -3.726000000     1.995000000    -1.265000000
H    -3.907000000     2.454000000    -0.297000000
C    -2.875000000     2.642000000    -2.183000000
O    -2.378000000     3.835000000    -1.762000000
C    -2.681000000     2.065000000    -3.441000000
C    -1.845000000     2.668000000    -4.544000000
H    -2.103000000     2.484000000    -5.589000000
C    -0.401000000     2.427000000    -4.349000000
C     0.292000000     1.324000000    -4.913000000
H    -0.249000000     0.613000000    -5.532000000
H    -2.122000000     3.720000000    -4.443000000
C    -3.232000000     0.797000000    -3.710000000
H    -3.116000000     0.243000000    -4.638000000
C    -4.053000000     0.212000000    -2.777000000
C    -4.539000000    -1.206000000    -3.050000000
H    -4.688000000    -1.319000000    -4.126000000
H    -5.557000000    -1.391000000    -2.702000000
C    -3.687000000    -2.307000000    -2.505000000
C    -2.619000000    -2.720000000    -3.279000000
H    -2.427000000    -2.227000000    -4.228000000
C    -3.913000000    -2.807000000    -1.203000000
C    -2.971000000    -3.688000000    -0.657000000
H    -3.133000000    -4.016000000     0.367000000
C    -1.825000000    -4.115000000    -1.426000000
O    -0.805000000    -4.795000000    -0.770000000
C     0.371000000    -4.114000000    -0.543000000
C     0.880000000    -4.467000000     0.857000000
C     2.231000000    -4.346000000     1.161000000
H     2.962000000    -4.082000000     0.401000000
C    -0.004000000    -4.822000000     1.897000000
H    -1.057000000    -4.819000000     1.627000000
O     1.410000000    -4.345000000    -1.523000000
H     0.190000000    -3.029000000    -0.536000000
C    -1.681000000    -3.630000000    -2.764000000
C    -0.526000000    -4.014000000    -3.602000000
H    -0.743000000    -4.082000000    -4.670000000
H    -0.265000000    -5.020000000    -3.268000000
C     0.689000000    -3.031000000    -3.455000000
C     0.907000000    -1.978000000    -4.296000000
H     0.109000000    -1.614000000    -4.938000000
C     1.641000000    -3.319000000    -2.446000000
C     2.788000000    -2.601000000    -2.341000000
H     3.492000000    -2.786000000    -1.534000000
C     3.012000000    -1.524000000    -3.212000000
O     3.941000000    -0.675000000    -2.775000000
C     3.610000000     0.595000000    -2.128000000
C     4.573000000     0.875000000    -0.968000000
C     5.212000000    -0.126000000    -0.225000000
H     5.152000000    -1.145000000    -0.600000000
C     4.494000000     2.144000000    -0.365000000
H     3.835000000     2.879000000    -0.822000000
O     3.515000000     1.671000000    -3.177000000
H     2.611000000     0.529000000    -1.672000000
C     2.097000000    -1.268000000    -4.249000000
C     2.425000000    -0.012000000    -5.083000000
H     2.175000000    -0.125000000    -6.140000000
H     3.506000000     0.119000000    -5.172000000
C     1.619000000     1.152000000    -4.537000000
C     2.276000000     1.995000000    -3.672000000
C     1.651000000     3.097000000    -3.116000000
H     2.152000000     3.771000000    -2.425000000
C     0.274000000     3.322000000    -3.459000000
O    -0.279000000     4.325000000    -2.656000000
C    -0.917000000     3.829000000    -1.474000000
H    -0.571000000     2.817000000    -1.216000000
C    -0.669000000     4.774000000    -0.255000000
C    -1.643000000     4.803000000     0.772000000
H    -2.539000000     4.189000000     0.724000000
C     0.524000000     5.559000000    -0.200000000
H     1.273000000     5.315000000    -0.948000000
C     0.702000000     6.496000000     0.883000000
O     1.851000000     7.221000000     0.982000000
C    -0.309000000     6.585000000     1.810000000
H    -0.079000000     7.116000000     2.730000000
C    -1.432000000     5.713000000     1.797000000
O    -2.427000000     5.843000000     2.804000000
C    -3.422000000     4.896000000     2.913000000
C    -3.167000000     3.749000000     3.618000000
H    -2.152000000     3.581000000     3.969000000
C    -4.712000000     5.313000000     2.638000000
H    -4.884000000     6.289000000     2.192000000
C    -5.683000000     4.355000000     2.854000000
H    -6.706000000     4.654000000     2.643000000
C    -5.516000000     3.072000000     3.493000000
H    -6.316000000     2.337000000     3.489000000
C    -4.127000000     2.745000000     3.829000000
O    -3.902000000     1.592000000     4.447000000
C    -4.094000000     0.447000000     3.770000000
C    -4.318000000    -0.706000000     4.539000000
H    -4.227000000    -0.647000000     5.620000000
C    -4.378000000    -1.936000000     3.916000000
O    -4.493000000    -3.053000000     4.654000000
C    -3.791000000    -4.231000000     4.372000000
C    -2.454000000    -4.255000000     4.430000000
H    -1.974000000    -3.367000000     4.832000000
C    -4.485000000    -5.407000000     4.080000000
H    -5.561000000    -5.254000000     4.069000000
C    -3.832000000    -6.596000000     3.682000000
H    -4.441000000    -7.433000000     3.353000000
C    -2.488000000    -6.561000000     3.582000000
H    -1.917000000    -7.441000000     3.297000000
C    -1.792000000    -5.427000000     4.047000000
O    -0.402000000    -5.369000000     4.179000000
C     0.478000000    -5.024000000     3.186000000
C     1.793000000    -4.965000000     3.465000000
H     2.074000000    -5.053000000     4.512000000
C     2.688000000    -4.581000000     2.451000000
O     4.010000000    -4.542000000     2.833000000
C     5.056000000    -4.026000000     2.099000000
C     5.214000000    -2.696000000     2.117000000
H     4.431000000    -2.122000000     2.606000000
C     6.026000000    -4.800000000     1.503000000
H     5.963000000    -5.885000000     1.488000000
C     7.115000000    -4.284000000     0.802000000
H     7.786000000    -4.916000000     0.224000000
C     7.211000000    -2.862000000     0.813000000
H     7.930000000    -2.341000000     0.186000000
C     6.302000000    -2.097000000     1.572000000
O     6.446000000    -0.752000000     1.733000000
C     5.813000000     0.176000000     1.014000000
C     5.737000000     1.419000000     1.549000000
H     6.108000000     1.682000000     2.536000000
C     5.084000000     2.432000000     0.864000000
O     4.902000000     3.615000000     1.519000000
C     4.588000000     4.754000000     0.930000000
C     5.400000000     5.382000000    -0.079000000
H     6.251000000     4.866000000    -0.515000000
C     5.056000000     6.608000000    -0.622000000
H     5.623000000     6.929000000    -1.491000000
C     3.867000000     7.217000000    -0.252000000
H     3.570000000     8.110000000    -0.796000000
C     3.031000000     6.640000000     0.728000000
C     3.400000000     5.449000000     1.319000000
H     2.708000000     5.035000000     2.048000000
O     3.529000000    -2.972000000     6.525000000
H     3.189000000    -2.422000000     5.819000000
H     2.747000000    -3.292000000     6.976000000
O     0.671000000    -3.585000000     7.265000000
H     0.732000000    -3.379000000     6.332000000
H     0.176000000    -2.857000000     7.639000000
O     6.722000000    -0.486000000     4.582000000
H     7.535000000    -0.013000000     4.758000000
H     6.862000000    -0.893000000     3.727000000
O    -1.603000000    -6.017000000     6.780000000
H    -0.863000000    -5.429000000     6.932000000
H    -1.586000000    -6.185000000     5.838000000
O     4.638000000     0.289000000     6.111000000
H     5.374000000     0.130000000     5.520000000
H     3.882000000    -0.082000000     5.657000000
O     1.522000000     1.639000000     5.371000000
H     2.163000000     2.251000000     5.733000000
H     2.045000000     0.894000000     5.073000000
O     4.247000000    -5.657000000     6.223000000
H     4.113000000    -4.710000000     6.244000000
H     5.007000000    -5.779000000     5.654000000
O     6.748000000    -3.115000000     6.403000000
H     6.519000000    -2.242000000     6.083000000
H     6.013000000    -3.365000000     6.963000000
O    -1.249000000     2.862000000     6.394000000
H    -0.588000000     3.092000000     5.741000000
H    -1.114000000     3.490000000     7.103000000
O    -2.896000000     0.734000000     7.468000000
H    -3.852000000     0.714000000     7.412000000
H    -2.644000000     1.518000000     6.980000000
O     4.254000000     2.975000000     7.106000000
H     3.840000000     2.698000000     7.924000000
H     4.678000000     2.184000000     6.773000000
O    -2.728000000    -2.315000000     7.676000000
H    -1.992000000    -2.005000000     7.148000000
H    -3.124000000    -1.517000000     8.027000000
O     2.465000000     2.712000000     9.521000000
H     2.842000000     2.044000000    10.094000000
H     1.759000000     2.260000000     9.059000000
O    -0.650000000    -1.113000000     6.643000000
H    -0.898000000    -0.275000000     6.253000000
H     0.047000000    -1.444000000     6.077000000
O     0.363000000     1.628000000     8.345000000
H    -0.079000000     0.799000000     8.529000000
H     0.391000000     1.677000000     7.389000000
O     0.581000000     2.860000000     2.598000000
H     0.876000000     2.285000000     3.304000000
H     0.579000000     2.302000000     1.820000000
O     5.438000000    -1.015000000     8.448000000
H     4.721000000    -1.491000000     8.868000000
H     5.063000000    -0.691000000     7.630000000
O     2.152000000    -4.406000000     9.504000000
H     2.436000000    -3.568000000     9.868000000
H     1.703000000    -4.174000000     8.691000000
O     6.561000000    -5.587000000     4.908000000
H     6.280000000    -5.150000000     4.104000000
H     6.956000000    -4.891000000     5.433000000
