201
-1255.22741
C    -3.705000000    -2.219000000     2.214000000
H    -3.305000000    -3.076000000     1.679000000
C    -3.940000000    -1.106000000     1.428000000
C    -4.260000000     0.082000000     2.080000000
H    -4.331000000     1.033000000     1.558000000
C    -3.720000000    -1.157000000    -0.098000000
O    -3.908000000    -2.448000000    -0.543000000
H    -2.721000000    -0.863000000    -0.454000000
O    -4.622000000    -0.288000000    -0.775000000
C    -4.088000000     0.542000000    -1.745000000
C    -3.822000000     1.817000000    -1.431000000
H    -4.145000000     2.234000000    -0.480000000
C    -3.150000000     2.593000000    -2.425000000
O    -2.834000000     3.831000000    -2.002000000
C    -2.675000000     2.036000000    -3.626000000
C    -1.902000000     2.951000000    -4.571000000
H    -2.099000000     2.477000000    -5.535000000
C    -0.385000000     2.926000000    -4.250000000
C     0.329000000     1.805000000    -4.653000000
H    -0.051000000     1.135000000    -5.420000000
H    -2.402000000     3.921000000    -4.609000000
C    -2.867000000     0.714000000    -3.875000000
H    -2.496000000     0.189000000    -4.751000000
C    -3.720000000    -0.043000000    -2.999000000
C    -4.037000000    -1.436000000    -3.335000000
H    -4.077000000    -1.522000000    -4.423000000
H    -4.990000000    -1.741000000    -2.898000000
C    -2.953000000    -2.374000000    -2.760000000
C    -1.959000000    -2.845000000    -3.643000000
H    -1.949000000    -2.439000000    -4.652000000
C    -2.961000000    -2.859000000    -1.505000000
C    -2.107000000    -3.906000000    -1.113000000
H    -2.296000000    -4.375000000    -0.151000000
C    -1.036000000    -4.161000000    -1.897000000
O    -0.037000000    -4.853000000    -1.380000000
C     1.121000000    -4.178000000    -0.802000000
C     1.476000000    -4.835000000     0.526000000
C     2.721000000    -4.687000000     1.125000000
H     3.462000000    -4.047000000     0.653000000
C     0.523000000    -5.473000000     1.304000000
H    -0.442000000    -5.671000000     0.845000000
O     2.186000000    -4.387000000    -1.801000000
H     1.045000000    -3.084000000    -0.713000000
C    -0.923000000    -3.667000000    -3.162000000
C     0.247000000    -3.994000000    -3.974000000
H    -0.110000000    -4.052000000    -5.004000000
H     0.677000000    -4.980000000    -3.788000000
C     1.437000000    -3.069000000    -3.763000000
C     1.510000000    -1.927000000    -4.522000000
H     0.879000000    -1.915000000    -5.407000000
C     2.330000000    -3.366000000    -2.707000000
C     3.334000000    -2.433000000    -2.385000000
H     4.090000000    -2.570000000    -1.617000000
C     3.248000000    -1.204000000    -3.006000000
O     4.132000000    -0.248000000    -2.477000000
C     3.492000000     0.875000000    -1.815000000
C     4.259000000     1.212000000    -0.519000000
C     4.805000000     0.145000000     0.268000000
H     4.848000000    -0.878000000    -0.098000000
C     4.154000000     2.513000000     0.057000000
H     3.721000000     3.342000000    -0.496000000
O     3.369000000     2.071000000    -2.664000000
H     2.487000000     0.578000000    -1.479000000
C     2.437000000    -0.963000000    -4.103000000
C     2.406000000     0.347000000    -4.911000000
H     2.057000000     0.158000000    -5.928000000
H     3.430000000     0.679000000    -5.094000000
C     1.589000000     1.480000000    -4.212000000
C     2.052000000     2.223000000    -3.124000000
C     1.318000000     3.203000000    -2.526000000
H     1.634000000     3.786000000    -1.665000000
C     0.084000000     3.546000000    -3.093000000
O    -0.627000000     4.558000000    -2.489000000
C    -1.494000000     4.088000000    -1.408000000
H    -1.104000000     3.125000000    -1.048000000
C    -1.429000000     4.988000000    -0.220000000
C    -2.425000000     4.902000000     0.780000000
H    -3.374000000     4.431000000     0.536000000
C    -0.316000000     5.777000000    -0.096000000
H     0.485000000     5.904000000    -0.820000000
C    -0.173000000     6.491000000     1.092000000
O     1.055000000     7.089000000     1.353000000
C    -1.185000000     6.504000000     2.057000000
H    -0.991000000     7.074000000     2.962000000
C    -2.272000000     5.663000000     1.954000000
O    -3.311000000     5.830000000     2.895000000
C    -4.248000000     4.916000000     3.162000000
C    -3.862000000     3.640000000     3.460000000
H    -2.846000000     3.480000000     3.810000000
C    -5.573000000     5.214000000     2.768000000
H    -5.899000000     6.223000000     2.531000000
C    -6.516000000     4.216000000     2.888000000
H    -7.560000000     4.467000000     2.722000000
C    -6.155000000     2.968000000     3.322000000
H    -6.940000000     2.225000000     3.440000000
C    -4.868000000     2.645000000     3.607000000
O    -4.502000000     1.362000000     4.063000000
C    -4.511000000     0.136000000     3.464000000
C    -4.218000000    -0.993000000     4.216000000
H    -4.265000000    -0.964000000     5.301000000
C    -3.792000000    -2.176000000     3.613000000
O    -3.603000000    -3.277000000     4.490000000
C    -3.162000000    -4.477000000     3.953000000
C    -1.828000000    -4.856000000     3.958000000
H    -1.032000000    -4.211000000     4.320000000
C    -4.181000000    -5.321000000     3.526000000
H    -5.176000000    -4.894000000     3.428000000
C    -3.825000000    -6.558000000     2.989000000
H    -4.637000000    -7.185000000     2.628000000
C    -2.480000000    -7.005000000     2.964000000
H    -2.225000000    -7.986000000     2.572000000
C    -1.528000000    -6.119000000     3.415000000
O    -0.258000000    -6.548000000     3.389000000
C     0.743000000    -6.011000000     2.580000000
C     2.024000000    -5.861000000     3.101000000
H     2.100000000    -6.210000000     4.128000000
C     2.994000000    -5.204000000     2.382000000
O     4.237000000    -5.056000000     3.013000000
C     5.213000000    -4.124000000     2.622000000
C     4.983000000    -2.740000000     2.680000000
H     4.085000000    -2.351000000     3.153000000
C     6.427000000    -4.606000000     2.085000000
H     6.543000000    -5.677000000     1.944000000
C     7.388000000    -3.703000000     1.660000000
H     8.342000000    -4.082000000     1.302000000
C     7.099000000    -2.317000000     1.606000000
H     7.858000000    -1.601000000     1.302000000
C     5.901000000    -1.875000000     2.069000000
O     5.813000000    -0.463000000     2.399000000
C     5.375000000     0.486000000     1.531000000
C     5.330000000     1.785000000     1.999000000
H     5.791000000     1.925000000     2.973000000
C     4.706000000     2.775000000     1.291000000
O     4.523000000     3.972000000     1.940000000
C     4.065000000     5.107000000     1.282000000
C     4.873000000     5.892000000     0.457000000
H     5.904000000     5.615000000     0.255000000
C     4.436000000     7.101000000    -0.090000000
H     5.117000000     7.701000000    -0.686000000
C     3.096000000     7.485000000     0.111000000
H     2.688000000     8.411000000    -0.287000000
C     2.288000000     6.690000000     0.954000000
C     2.775000000     5.527000000     1.538000000
H     2.264000000     4.948000000     2.303000000
O    -1.960000000    -3.936000000     8.125000000
H    -1.745000000    -3.155000000     7.614000000
H    -2.581000000    -3.627000000     8.785000000
O     0.944000000    -2.204000000     5.783000000
H     1.002000000    -1.923000000     6.696000000
H     0.423000000    -1.525000000     5.355000000
O    -1.781000000    -1.633000000     6.918000000
H    -1.499000000    -1.263000000     6.081000000
H    -1.553000000    -0.965000000     7.564000000
O    -0.009000000    -5.210000000     6.528000000
H     0.566000000    -4.634000000     6.023000000
H    -0.638000000    -4.618000000     6.940000000
O     2.908000000     2.658000000     4.812000000
H     3.253000000     2.106000000     4.110000000
H     1.957000000     2.582000000     4.732000000
O     0.082000000     5.829000000     7.296000000
H     0.005000000     6.225000000     6.428000000
H     0.927000000     6.134000000     7.626000000
O    -0.138000000     4.288000000     4.877000000
H     0.430000000     4.537000000     5.606000000
H    -0.043000000     3.338000000     4.812000000
O     4.209000000    -2.347000000     6.396000000
H     3.330000000    -2.206000000     6.044000000
H     4.190000000    -1.938000000     7.261000000
O    -0.381000000    -0.202000000     9.399000000
H    -0.701000000     0.093000000    10.252000000
H    -0.534000000     0.541000000     8.815000000
O     2.245000000     3.393000000     9.583000000
H     1.559000000     3.331000000    10.248000000
H     1.775000000     3.367000000     8.750000000
O     1.515000000    -1.882000000     8.388000000
H     1.298000000    -2.689000000     8.856000000
H     0.908000000    -1.231000000     8.740000000
O    -2.636000000     5.504000000     5.799000000
H    -1.914000000     4.924000000     5.559000000
H    -2.725000000     6.097000000     5.052000000
O    -5.253000000     3.529000000     6.448000000
H    -5.381000000     4.222000000     5.800000000
H    -4.488000000     3.810000000     6.950000000
O    -2.729000000     2.000000000     9.061000000
H    -3.544000000     1.527000000     9.231000000
H    -2.689000000     2.073000000     8.107000000
O     3.686000000     5.544000000     5.327000000
H     3.147000000     6.034000000     4.706000000
H     3.489000000     4.626000000     5.143000000
O    -0.351000000     2.988000000    10.547000000
H    -0.755000000     3.840000000    10.383000000
H    -0.850000000     2.377000000    10.006000000
O    -0.017000000     1.827000000     7.293000000
H     0.326000000     1.564000000     6.439000000
H    -0.966000000     1.851000000     7.173000000
O    -2.524000000     1.462000000     6.198000000
H    -3.344000000     1.356000000     5.715000000
H    -1.858000000     1.079000000     5.626000000
O     3.821000000     1.163000000     7.383000000
H     3.810000000     1.571000000     6.518000000
H     2.998000000     1.439000000     7.788000000
