201
-1259.04168
C    -4.387000000    -2.494000000     1.789000000
H    -4.139000000    -3.446000000     1.326000000
C    -4.341000000    -1.328000000     1.038000000
C    -4.454000000    -0.070000000     1.641000000
H    -4.190000000     0.783000000     1.021000000
C    -3.996000000    -1.443000000    -0.407000000
O    -4.162000000    -2.754000000    -1.070000000
H    -2.926000000    -1.199000000    -0.478000000
O    -4.717000000    -0.504000000    -1.248000000
C    -4.041000000     0.245000000    -2.175000000
C    -3.634000000     1.547000000    -1.884000000
H    -3.913000000     2.047000000    -0.960000000
C    -2.749000000     2.264000000    -2.706000000
O    -2.500000000     3.560000000    -2.362000000
C    -2.206000000     1.732000000    -3.864000000
C    -1.186000000     2.477000000    -4.753000000
H    -1.129000000     1.994000000    -5.731000000
C     0.183000000     2.418000000    -4.148000000
C     1.107000000     1.531000000    -4.627000000
H     0.818000000     0.750000000    -5.326000000
H    -1.567000000     3.486000000    -4.925000000
C    -2.699000000     0.432000000    -4.163000000
H    -2.510000000     0.012000000    -5.147000000
C    -3.497000000    -0.318000000    -3.345000000
C    -3.811000000    -1.827000000    -3.655000000
H    -3.819000000    -1.974000000    -4.737000000
H    -4.805000000    -1.986000000    -3.231000000
C    -2.806000000    -2.731000000    -2.979000000
C    -1.573000000    -2.983000000    -3.636000000
H    -1.444000000    -2.623000000    -4.654000000
C    -3.038000000    -3.181000000    -1.697000000
C    -2.094000000    -3.867000000    -1.024000000
H    -2.222000000    -4.172000000     0.011000000
C    -0.933000000    -4.251000000    -1.731000000
O     0.142000000    -4.922000000    -1.114000000
C     1.145000000    -4.046000000    -0.536000000
C     1.309000000    -4.424000000     0.874000000
C     2.511000000    -4.098000000     1.571000000
H     3.262000000    -3.487000000     1.077000000
C     0.273000000    -4.979000000     1.597000000
H    -0.684000000    -5.096000000     1.094000000
O     2.383000000    -4.192000000    -1.197000000
H     0.768000000    -3.013000000    -0.511000000
C    -0.629000000    -3.809000000    -3.042000000
C     0.825000000    -4.077000000    -3.614000000
H     0.728000000    -4.085000000    -4.702000000
H     1.132000000    -5.042000000    -3.205000000
C     1.893000000    -3.072000000    -3.251000000
C     2.233000000    -1.936000000    -4.023000000
H     1.724000000    -1.794000000    -4.972000000
C     2.695000000    -3.228000000    -2.059000000
C     3.660000000    -2.282000000    -1.701000000
H     4.176000000    -2.463000000    -0.762000000
C     3.840000000    -1.066000000    -2.427000000
O     4.565000000    -0.027000000    -1.916000000
C     3.892000000     1.212000000    -1.422000000
C     4.502000000     1.571000000    -0.091000000
C     4.779000000     0.539000000     0.858000000
H     4.623000000    -0.528000000     0.723000000
C     4.504000000     2.924000000     0.276000000
H     4.251000000     3.708000000    -0.433000000
O     3.924000000     2.249000000    -2.423000000
H     2.839000000     0.951000000    -1.239000000
C     3.129000000    -0.941000000    -3.643000000
C     3.346000000     0.312000000    -4.517000000
H     3.142000000     0.094000000    -5.567000000
H     4.366000000     0.688000000    -4.414000000
C     2.389000000     1.389000000    -4.045000000
C     2.811000000     2.376000000    -3.143000000
C     1.888000000     3.331000000    -2.718000000
H     2.141000000     4.133000000    -2.028000000
C     0.583000000     3.378000000    -3.213000000
O    -0.294000000     4.315000000    -2.666000000
C    -1.247000000     3.830000000    -1.755000000
H    -0.877000000     2.898000000    -1.302000000
C    -1.350000000     4.802000000    -0.621000000
C    -2.529000000     4.891000000     0.129000000
H    -3.358000000     4.221000000    -0.081000000
C    -0.263000000     5.521000000    -0.129000000
H     0.667000000     5.417000000    -0.682000000
C    -0.337000000     6.183000000     1.105000000
O     0.711000000     6.697000000     1.798000000
C    -1.529000000     6.242000000     1.802000000
H    -1.606000000     6.793000000     2.736000000
C    -2.655000000     5.643000000     1.310000000
O    -3.795000000     5.653000000     2.136000000
C    -4.559000000     4.491000000     2.286000000
C    -4.082000000     3.384000000     2.979000000
H    -3.094000000     3.354000000     3.431000000
C    -5.825000000     4.527000000     1.757000000
H    -6.023000000     5.345000000     1.070000000
C    -6.746000000     3.485000000     1.968000000
H    -7.781000000     3.570000000     1.649000000
C    -6.275000000     2.381000000     2.755000000
H    -6.907000000     1.503000000     2.863000000
C    -4.918000000     2.306000000     3.140000000
O    -4.480000000     1.161000000     3.711000000
C    -4.610000000    -0.030000000     3.072000000
C    -4.793000000    -1.222000000     3.731000000
H    -4.949000000    -1.110000000     4.801000000
C    -4.641000000    -2.444000000     3.085000000
O    -4.740000000    -3.626000000     3.872000000
C    -4.072000000    -4.760000000     3.500000000
C    -2.729000000    -4.696000000     3.639000000
H    -2.289000000    -3.908000000     4.245000000
C    -4.661000000    -5.886000000     3.012000000
H    -5.743000000    -5.847000000     2.915000000
C    -3.907000000    -7.023000000     2.651000000
H    -4.321000000    -7.938000000     2.236000000
C    -2.502000000    -6.974000000     2.803000000
H    -1.892000000    -7.872000000     2.748000000
C    -1.917000000    -5.783000000     3.277000000
O    -0.604000000    -5.752000000     3.738000000
C     0.486000000    -5.383000000     2.911000000
C     1.627000000    -5.161000000     3.607000000
H     1.739000000    -5.375000000     4.666000000
C     2.643000000    -4.471000000     2.962000000
O     3.898000000    -4.379000000     3.530000000
C     4.864000000    -3.498000000     3.268000000
C     4.724000000    -2.153000000     3.463000000
H     3.977000000    -1.799000000     4.169000000
C     6.016000000    -3.936000000     2.627000000
H     5.963000000    -4.973000000     2.305000000
C     7.059000000    -3.086000000     2.320000000
H     7.939000000    -3.426000000     1.779000000
C     6.855000000    -1.703000000     2.516000000
H     7.504000000    -0.947000000     2.082000000
C     5.671000000    -1.221000000     3.130000000
O     5.428000000     0.140000000     3.205000000
C     5.214000000     0.979000000     2.140000000
C     5.322000000     2.321000000     2.436000000
H     5.481000000     2.593000000     3.477000000
C     4.953000000     3.279000000     1.520000000
O     4.947000000     4.606000000     1.925000000
C     4.136000000     5.541000000     1.312000000
C     4.582000000     6.323000000     0.190000000
H     5.545000000     6.207000000    -0.300000000
C     3.652000000     7.166000000    -0.447000000
H     4.031000000     7.707000000    -1.310000000
C     2.367000000     7.268000000     0.105000000
H     1.610000000     7.838000000    -0.426000000
C     1.970000000     6.562000000     1.224000000
C     2.889000000     5.714000000     1.823000000
H     2.714000000     5.157000000     2.741000000
O     3.439000000     3.351000000     9.060000000
H     3.788000000     2.475000000     8.897000000
H     4.032000000     3.728000000     9.710000000
O     1.830000000    -2.594000000     6.295000000
H     1.794000000    -2.291000000     7.202000000
H     1.477000000    -1.866000000     5.785000000
O    -1.638000000    -1.416000000     7.072000000
H    -0.919000000    -1.199000000     6.478000000
H    -1.242000000    -1.397000000     7.943000000
O     0.563000000    -5.026000000     7.534000000
H     1.062000000    -4.219000000     7.660000000
H    -0.352000000    -4.744000000     7.537000000
O     2.998000000     2.843000000     4.774000000
H     3.067000000     3.551000000     5.414000000
H     2.087000000     2.870000000     4.483000000
O     0.199000000     5.355000000     5.803000000
H    -0.004000000     6.214000000     6.174000000
H     1.141000000     5.253000000     5.937000000
O    -1.673000000     3.455000000     5.752000000
H    -1.132000000     4.245000000     5.725000000
H    -1.078000000     2.749000000     5.499000000
O    -0.360000000    -0.306000000     9.534000000
H    -1.066000000     0.150000000     9.993000000
H     0.001000000     0.349000000     8.938000000
O    -0.598000000     2.843000000     9.932000000
H    -1.534000000     2.709000000    10.077000000
H    -0.436000000     2.482000000     9.061000000
O     1.466000000    -2.137000000     8.928000000
H     1.188000000    -2.861000000     9.489000000
H     0.954000000    -1.387000000     9.233000000
O    -3.804000000     5.165000000     6.130000000
H    -3.108000000     4.531000000     5.959000000
H    -3.346000000     5.995000000     6.258000000
O     4.694000000     0.798000000     8.712000000
H     3.986000000     0.743000000     8.070000000
H     5.377000000     0.223000000     8.365000000
O    -6.215000000     1.217000000     6.360000000
H    -5.260000000     1.164000000     6.315000000
H    -6.424000000     2.079000000     6.001000000
O     3.143000000     5.018000000     6.630000000
H     3.477000000     5.915000000     6.665000000
H     2.965000000     4.794000000     7.544000000
O    -3.964000000     1.983000000     8.504000000
H    -4.919000000     1.990000000     8.565000000
H    -3.774000000     1.380000000     7.785000000
O    -3.491000000    -3.212000000     6.493000000
H    -2.890000000    -2.563000000     6.127000000
H    -4.361000000    -2.831000000     6.367000000
O     0.683000000     1.432000000     7.720000000
H     1.454000000     1.967000000     7.532000000
H     0.272000000     1.297000000     6.866000000
O    -3.389000000     0.531000000     6.370000000
H    -3.003000000     0.913000000     5.582000000
H    -2.750000000    -0.122000000     6.657000000
O     3.359000000     0.275000000     6.300000000
H     2.425000000     0.084000000     6.214000000
H     3.522000000     0.965000000     5.657000000
