201
-1228.22085
C    -4.198000000    -1.832000000     1.929000000
H    -3.355000000    -2.517000000     1.967000000
C    -4.572000000    -1.349000000     0.695000000
C    -5.464000000    -0.334000000     0.597000000
H    -5.599000000     0.195000000    -0.343000000
C    -3.811000000    -1.871000000    -0.524000000
O    -3.664000000    -3.267000000    -0.591000000
H    -2.803000000    -1.433000000    -0.485000000
O    -4.436000000    -1.420000000    -1.701000000
C    -3.635000000    -0.884000000    -2.673000000
C    -3.559000000     0.513000000    -2.787000000
H    -4.293000000     1.072000000    -2.211000000
C    -2.583000000     1.053000000    -3.666000000
O    -2.409000000     2.410000000    -3.639000000
C    -1.724000000     0.281000000    -4.397000000
C    -0.728000000     0.875000000    -5.371000000
H    -0.760000000     0.193000000    -6.224000000
C     0.587000000     1.209000000    -4.613000000
C     1.600000000     0.240000000    -4.653000000
H     1.428000000    -0.715000000    -5.143000000
H    -1.199000000     1.776000000    -5.769000000
C    -1.772000000    -1.057000000    -4.266000000
H    -1.078000000    -1.626000000    -4.880000000
C    -2.708000000    -1.712000000    -3.433000000
C    -2.842000000    -3.151000000    -3.304000000
H    -2.619000000    -3.537000000    -4.301000000
H    -3.901000000    -3.360000000    -3.141000000
C    -1.957000000    -3.698000000    -2.249000000
C    -0.582000000    -4.158000000    -2.495000000
H    -0.155000000    -4.063000000    -3.490000000
C    -2.430000000    -3.674000000    -0.879000000
C    -1.503000000    -4.104000000     0.117000000
H    -1.820000000    -4.402000000     1.113000000
C    -0.232000000    -4.465000000    -0.148000000
O     0.593000000    -4.802000000     0.872000000
C     1.517000000    -3.710000000     1.212000000
C     1.641000000    -3.628000000     2.681000000
C     2.787000000    -3.115000000     3.299000000
H     3.603000000    -2.792000000     2.658000000
C     0.525000000    -3.882000000     3.445000000
H    -0.367000000    -4.156000000     2.889000000
O     2.793000000    -3.914000000     0.537000000
H     1.011000000    -2.782000000     0.904000000
C     0.311000000    -4.425000000    -1.480000000
C     1.690000000    -4.816000000    -1.899000000
H     1.665000000    -5.286000000    -2.884000000
H     2.107000000    -5.628000000    -1.300000000
C     2.608000000    -3.621000000    -1.793000000
C     2.971000000    -2.793000000    -2.866000000
H     2.584000000    -2.976000000    -3.866000000
C     3.049000000    -3.180000000    -0.547000000
C     3.848000000    -2.055000000    -0.395000000
H     4.315000000    -1.906000000     0.575000000
C     4.201000000    -1.289000000    -1.508000000
O     4.935000000    -0.140000000    -1.314000000
C     4.222000000     1.062000000    -1.157000000
C     4.810000000     1.884000000    -0.011000000
C     5.252000000     1.189000000     1.123000000
H     5.356000000     0.107000000     1.156000000
C     4.593000000     3.278000000    -0.038000000
H     4.278000000     3.772000000    -0.953000000
O     4.069000000     1.774000000    -2.459000000
H     3.175000000     0.863000000    -0.886000000
C     3.687000000    -1.678000000    -2.765000000
C     3.851000000    -0.772000000    -4.001000000
H     3.857000000    -1.442000000    -4.864000000
H     4.880000000    -0.425000000    -4.121000000
C     2.843000000     0.433000000    -4.083000000
C     2.972000000     1.558000000    -3.232000000
C     2.008000000     2.519000000    -3.217000000
H     2.216000000     3.471000000    -2.735000000
C     0.763000000     2.375000000    -3.844000000
O    -0.234000000     3.278000000    -3.539000000
C    -1.373000000     2.797000000    -2.737000000
H    -1.217000000     1.865000000    -2.175000000
C    -1.814000000     3.864000000    -1.721000000
C    -3.165000000     4.105000000    -1.362000000
H    -3.924000000     3.411000000    -1.714000000
C    -0.847000000     4.606000000    -1.073000000
H     0.202000000     4.356000000    -1.207000000
C    -1.161000000     5.715000000    -0.275000000
O    -0.239000000     6.651000000     0.233000000
C    -2.502000000     5.917000000     0.035000000
H    -2.888000000     6.762000000     0.600000000
C    -3.450000000     5.126000000    -0.538000000
O    -4.724000000     5.241000000    -0.120000000
C    -5.661000000     4.197000000    -0.181000000
C    -5.580000000     3.111000000     0.643000000
H    -4.819000000     2.968000000     1.405000000
C    -6.618000000     4.258000000    -1.196000000
H    -6.531000000     5.011000000    -1.974000000
C    -7.622000000     3.277000000    -1.217000000
H    -8.298000000     3.316000000    -2.068000000
C    -7.662000000     2.268000000    -0.249000000
H    -8.467000000     1.548000000    -0.377000000
C    -6.621000000     2.208000000     0.695000000
O    -6.709000000     1.349000000     1.723000000
C    -6.031000000     0.146000000     1.778000000
C    -5.850000000    -0.465000000     2.959000000
H    -6.475000000    -0.190000000     3.804000000
C    -4.836000000    -1.469000000     3.102000000
O    -4.593000000    -2.064000000     4.328000000
C    -3.821000000    -3.230000000     4.440000000
C    -2.589000000    -3.182000000     5.008000000
H    -2.275000000    -2.256000000     5.484000000
C    -4.207000000    -4.460000000     3.905000000
H    -5.082000000    -4.498000000     3.261000000
C    -3.384000000    -5.564000000     3.959000000
H    -3.629000000    -6.480000000     3.429000000
C    -2.151000000    -5.489000000     4.646000000
H    -1.532000000    -6.361000000     4.837000000
C    -1.772000000    -4.296000000     5.156000000
O    -0.508000000    -4.167000000     5.691000000
C     0.571000000    -3.824000000     4.900000000
C     1.820000000    -3.587000000     5.498000000
H     2.017000000    -3.689000000     6.562000000
C     2.888000000    -3.093000000     4.662000000
O     4.029000000    -2.640000000     5.338000000
C     4.948000000    -1.949000000     4.626000000
C     4.838000000    -0.568000000     4.503000000
H     4.001000000     0.006000000     4.893000000
C     6.103000000    -2.609000000     4.090000000
H     6.214000000    -3.669000000     4.301000000
C     6.955000000    -1.972000000     3.247000000
H     7.808000000    -2.472000000     2.795000000
C     6.755000000    -0.621000000     2.963000000
H     7.408000000    -0.060000000     2.299000000
C     5.802000000     0.040000000     3.730000000
O     5.662000000     1.389000000     3.498000000
C     5.388000000     1.956000000     2.300000000
C     5.169000000     3.363000000     2.288000000
H     5.249000000     3.919000000     3.218000000
C     4.770000000     3.964000000     1.100000000
O     4.364000000     5.347000000     1.168000000
C     3.424000000     5.967000000     0.280000000
C     3.790000000     6.526000000    -0.883000000
H     4.832000000     6.587000000    -1.185000000
C     2.930000000     7.305000000    -1.741000000
H     3.257000000     7.747000000    -2.679000000
C     1.541000000     7.327000000    -1.343000000
H     0.777000000     7.845000000    -1.916000000
C     1.109000000     6.695000000    -0.131000000
C     2.044000000     5.950000000     0.563000000
H     1.742000000     5.397000000     1.449000000
O    -1.805000000     3.090000000     2.237000000
H    -1.364000000     3.807000000     2.692000000
H    -1.109000000     2.458000000     2.055000000
O    -0.078000000     3.684000000     8.290000000
H     0.335000000     3.087000000     7.666000000
H    -0.142000000     4.515000000     7.820000000
O    -1.388000000     5.258000000    10.479000000
H    -0.931000000     4.978000000     9.686000000
H    -1.107000000     6.163000000    10.611000000
O     3.783000000     5.474000000     8.372000000
H     3.198000000     4.918000000     8.885000000
H     4.027000000     4.935000000     7.619000000
O    -0.788000000    -0.238000000     6.716000000
H    -1.731000000    -0.112000000     6.827000000
H    -0.461000000     0.622000000     6.451000000
O     1.241000000     0.096000000     8.421000000
H     0.562000000     0.054000000     7.748000000
H     1.909000000     0.675000000     8.053000000
O     2.983000000     3.282000000    10.270000000
H     2.941000000     2.788000000     9.452000000
H     3.562000000     2.765000000    10.831000000
O    -2.071000000     3.213000000     5.847000000
H    -1.304000000     2.775000000     6.216000000
H    -1.712000000     3.811000000     5.192000000
O    -0.538000000     4.957000000     3.486000000
H     0.309000000     4.860000000     3.920000000
H    -0.636000000     5.901000000     3.360000000
O     3.096000000     1.890000000     7.506000000
H     3.976000000     1.589000000     7.281000000
H     2.715000000     2.162000000     6.671000000
O    -0.444000000     6.416000000     7.357000000
H     0.185000000     6.224000000     6.661000000
H    -0.221000000     7.302000000     7.643000000
O    -3.260000000     5.593000000     7.066000000
H    -2.361000000     5.912000000     6.990000000
H    -3.242000000     4.727000000     6.660000000
O    -3.663000000     1.606000000     3.858000000
H    -2.934000000     2.136000000     3.536000000
H    -3.307000000     1.148000000     4.619000000
O     5.701000000     0.897000000     7.136000000
H     6.040000000     1.447000000     6.430000000
H     6.249000000     1.112000000     7.892000000
O     4.012000000     6.634000000     4.317000000
H     4.831000000     6.627000000     3.822000000
H     3.528000000     7.383000000     3.971000000
O     1.671000000     5.828000000     5.561000000
H     1.897000000     4.902000000     5.651000000
H     2.491000000     6.251000000     5.308000000
O    -3.573000000     0.037000000     6.173000000
H    -4.200000000    -0.452000000     5.640000000
H    -3.942000000     0.018000000     7.055000000
O    -2.065000000     2.012000000     9.488000000
H    -1.397000000     2.678000000     9.322000000
H    -2.441000000     1.830000000     8.626000000
O     4.297000000     4.224000000     5.617000000
H     3.472000000     3.788000000     5.400000000
H     4.427000000     4.855000000     4.910000000
