201
-1252.68364
C    -4.700000000    -2.311000000     1.561000000
H    -4.261000000    -3.299000000     1.672000000
C    -4.719000000    -1.478000000     0.433000000
C    -5.385000000    -0.276000000     0.484000000
H    -5.247000000     0.359000000    -0.387000000
C    -3.929000000    -1.809000000    -0.811000000
O    -3.723000000    -3.202000000    -0.851000000
H    -2.876000000    -1.505000000    -0.716000000
O    -4.447000000    -1.180000000    -1.993000000
C    -3.590000000    -0.705000000    -2.992000000
C    -3.532000000     0.728000000    -3.090000000
H    -4.215000000     1.383000000    -2.555000000
C    -2.539000000     1.228000000    -3.867000000
O    -2.310000000     2.554000000    -3.740000000
C    -1.611000000     0.460000000    -4.584000000
C    -0.600000000     1.020000000    -5.479000000
H    -0.448000000     0.333000000    -6.315000000
C     0.722000000     1.274000000    -4.716000000
C     1.631000000     0.288000000    -4.638000000
H     1.365000000    -0.636000000    -5.146000000
H    -0.997000000     1.940000000    -5.913000000
C    -1.723000000    -0.927000000    -4.486000000
H    -1.038000000    -1.616000000    -4.973000000
C    -2.767000000    -1.539000000    -3.750000000
C    -2.704000000    -3.032000000    -3.641000000
H    -2.320000000    -3.435000000    -4.580000000
H    -3.731000000    -3.402000000    -3.672000000
C    -1.969000000    -3.571000000    -2.480000000
C    -0.644000000    -3.847000000    -2.758000000
H    -0.240000000    -3.843000000    -3.767000000
C    -2.453000000    -3.656000000    -1.210000000
C    -1.641000000    -4.103000000    -0.218000000
H    -1.960000000    -4.255000000     0.810000000
C    -0.265000000    -4.378000000    -0.468000000
O     0.579000000    -4.688000000     0.571000000
C     1.591000000    -3.835000000     0.948000000
C     1.700000000    -3.672000000     2.423000000
C     2.919000000    -3.491000000     3.127000000
H     3.851000000    -3.467000000     2.569000000
C     0.510000000    -3.612000000     3.181000000
H    -0.429000000    -3.748000000     2.650000000
O     2.905000000    -4.209000000     0.351000000
H     1.187000000    -2.881000000     0.579000000
C     0.240000000    -4.295000000    -1.791000000
C     1.582000000    -4.834000000    -2.173000000
H     1.462000000    -5.188000000    -3.199000000
H     1.824000000    -5.684000000    -1.532000000
C     2.672000000    -3.772000000    -2.009000000
C     3.129000000    -2.958000000    -3.097000000
H     2.655000000    -3.138000000    -4.058000000
C     3.183000000    -3.469000000    -0.742000000
C     3.948000000    -2.332000000    -0.545000000
H     4.429000000    -2.159000000     0.414000000
C     4.200000000    -1.441000000    -1.580000000
O     4.894000000    -0.244000000    -1.370000000
C     4.065000000     0.879000000    -1.107000000
C     4.510000000     1.684000000     0.116000000
C     5.006000000     1.021000000     1.248000000
H     5.233000000    -0.039000000     1.160000000
C     4.299000000     3.104000000     0.145000000
H     3.761000000     3.592000000    -0.663000000
O     4.112000000     1.734000000    -2.276000000
H     3.045000000     0.539000000    -0.872000000
C     3.714000000    -1.692000000    -2.895000000
C     3.893000000    -0.699000000    -4.001000000
H     3.811000000    -1.090000000    -5.018000000
H     4.905000000    -0.310000000    -3.870000000
C     2.879000000     0.434000000    -4.007000000
C     3.084000000     1.601000000    -3.253000000
C     2.116000000     2.588000000    -3.210000000
H     2.243000000     3.365000000    -2.462000000
C     0.901000000     2.408000000    -3.856000000
O    -0.095000000     3.328000000    -3.591000000
C    -1.254000000     2.892000000    -2.815000000
H    -1.047000000     2.059000000    -2.127000000
C    -1.640000000     3.935000000    -1.776000000
C    -2.964000000     4.331000000    -1.553000000
H    -3.742000000     4.015000000    -2.243000000
C    -0.641000000     4.419000000    -0.902000000
H     0.387000000     4.079000000    -1.001000000
C    -0.953000000     5.337000000     0.099000000
O    -0.010000000     5.744000000     1.046000000
C    -2.318000000     5.634000000     0.334000000
H    -2.577000000     6.297000000     1.156000000
C    -3.322000000     5.091000000    -0.414000000
O    -4.652000000     5.324000000    -0.051000000
C    -5.592000000     4.337000000    -0.062000000
C    -5.712000000     3.313000000     0.968000000
H    -4.965000000     3.171000000     1.745000000
C    -6.673000000     4.487000000    -0.973000000
H    -6.614000000     5.312000000    -1.678000000
C    -7.770000000     3.711000000    -0.984000000
H    -8.581000000     3.902000000    -1.683000000
C    -7.743000000     2.578000000    -0.132000000
H    -8.637000000     1.984000000     0.034000000
C    -6.710000000     2.386000000     0.741000000
O    -6.811000000     1.358000000     1.685000000
C    -6.067000000     0.183000000     1.646000000
C    -6.008000000    -0.643000000     2.767000000
H    -6.568000000    -0.294000000     3.632000000
C    -5.278000000    -1.818000000     2.737000000
O    -5.262000000    -2.576000000     3.891000000
C    -4.183000000    -3.388000000     4.226000000
C    -2.905000000    -2.936000000     4.596000000
H    -2.674000000    -1.875000000     4.637000000
C    -4.424000000    -4.728000000     4.178000000
H    -5.384000000    -5.123000000     3.856000000
C    -3.413000000    -5.679000000     4.467000000
H    -3.575000000    -6.737000000     4.275000000
C    -2.137000000    -5.251000000     4.829000000
H    -1.282000000    -5.922000000     4.857000000
C    -1.856000000    -3.852000000     4.875000000
O    -0.617000000    -3.385000000     5.250000000
C     0.516000000    -3.331000000     4.500000000
C     1.689000000    -3.241000000     5.208000000
H     1.626000000    -2.946000000     6.252000000
C     2.889000000    -3.247000000     4.518000000
O     3.983000000    -2.763000000     5.185000000
C     5.050000000    -2.171000000     4.508000000
C     5.026000000    -0.800000000     4.294000000
H     4.242000000    -0.157000000     4.685000000
C     6.070000000    -2.936000000     3.899000000
H     6.061000000    -4.004000000     4.105000000
C     7.081000000    -2.340000000     3.130000000
H     7.755000000    -2.982000000     2.569000000
C     7.082000000    -0.924000000     2.982000000
H     7.961000000    -0.512000000     2.494000000
C     6.020000000    -0.176000000     3.606000000
O     6.016000000     1.202000000     3.388000000
C     5.440000000     1.791000000     2.277000000
C     5.367000000     3.184000000     2.255000000
H     5.752000000     3.610000000     3.177000000
C     4.800000000     3.869000000     1.238000000
O     4.734000000     5.274000000     1.242000000
C     3.614000000     5.921000000     0.819000000
C     3.808000000     7.113000000     0.154000000
H     4.794000000     7.506000000    -0.080000000
C     2.696000000     7.908000000    -0.235000000
H     2.869000000     8.889000000    -0.669000000
C     1.373000000     7.451000000     0.039000000
H     0.523000000     8.012000000    -0.341000000
C     1.238000000     6.257000000     0.698000000
C     2.308000000     5.462000000     1.039000000
H     2.098000000     4.518000000     1.534000000
O    -2.579000000     1.808000000     1.005000000
H    -1.645000000     1.717000000     1.194000000
H    -2.871000000     0.917000000     0.810000000
O    -0.784000000     3.418000000     6.820000000
H    -0.249000000     2.848000000     7.372000000
H    -0.430000000     3.299000000     5.939000000
O     4.789000000     2.693000000     6.068000000
H     4.446000000     2.122000000     6.755000000
H     4.053000000     3.259000000     5.837000000
O    -3.636000000    -0.534000000     9.025000000
H    -4.313000000    -0.872000000     8.439000000
H    -2.897000000    -0.339000000     8.450000000
O    -1.248000000     0.294000000     7.584000000
H    -1.096000000     0.674000000     6.718000000
H    -1.216000000     1.041000000     8.182000000
O     2.488000000     2.659000000     9.654000000
H     2.688000000     2.134000000     8.879000000
H     3.190000000     3.308000000     9.692000000
O    -3.594000000     1.317000000     4.605000000
H    -3.909000000     0.440000000     4.387000000
H    -2.695000000     1.181000000     4.903000000
O    -1.795000000     5.954000000     3.864000000
H    -2.408000000     5.255000000     3.637000000
H    -0.966000000     5.681000000     3.471000000
O     1.663000000    -0.183000000     6.521000000
H     1.288000000     0.316000000     5.796000000
H     1.546000000    -1.099000000     6.268000000
O    -2.209000000     6.232000000     6.887000000
H    -1.830000000     5.387000000     6.646000000
H    -1.611000000     6.879000000     6.514000000
O    -3.222000000     2.849000000     8.053000000
H    -2.434000000     3.074000000     7.559000000
H    -3.916000000     2.815000000     7.394000000
O    -2.977000000     3.637000000     3.255000000
H    -2.890000000     3.171000000     2.424000000
H    -2.995000000     2.946000000     3.917000000
O    -0.115000000     7.842000000     5.907000000
H     0.532000000     8.174000000     6.529000000
H     0.258000000     7.018000000     5.592000000
O    -5.744000000     1.951000000     6.457000000
H    -5.069000000     1.567000000     5.897000000
H    -5.939000000     1.268000000     7.099000000
O     3.663000000     1.082000000     7.735000000
H     4.327000000     0.477000000     8.066000000
H     3.067000000     0.529000000     7.229000000
O    -0.199000000     2.263000000     9.433000000
H    -0.453000000     3.165000000     9.628000000
H     0.725000000     2.216000000     9.676000000
O    -0.184000000    -2.309000000     9.271000000
H    -0.230000000    -1.472000000     8.810000000
H     0.076000000    -2.078000000    10.163000000
O     0.944000000     5.349000000     4.613000000
H     0.730000000     4.417000000     4.567000000
H     1.896000000     5.371000000     4.710000000
O    -4.916000000     5.817000000     3.516000000
H    -4.606000000     6.135000000     4.364000000
H    -4.497000000     4.963000000     3.413000000
