201
-1282.18791
C    -4.375000000    -2.708000000     1.140000000
H    -3.972000000    -3.711000000     1.027000000
C    -4.029000000    -1.781000000     0.180000000
C    -4.107000000    -0.384000000     0.481000000
H    -3.770000000     0.382000000    -0.213000000
C    -3.334000000    -2.079000000    -1.183000000
O    -3.280000000    -3.529000000    -1.306000000
H    -2.357000000    -1.579000000    -1.103000000
O    -4.018000000    -1.595000000    -2.411000000
C    -3.193000000    -1.003000000    -3.256000000
C    -3.313000000     0.392000000    -3.385000000
H    -4.168000000     0.930000000    -2.985000000
C    -2.354000000     1.074000000    -4.163000000
O    -2.364000000     2.497000000    -4.105000000
C    -1.384000000     0.337000000    -4.872000000
C    -0.397000000     1.024000000    -5.725000000
H    -0.195000000     0.379000000    -6.583000000
C     0.829000000     1.274000000    -4.819000000
C     1.831000000     0.334000000    -4.635000000
H     1.804000000    -0.512000000    -5.318000000
H    -0.838000000     1.938000000    -6.127000000
C    -1.343000000    -1.070000000    -4.749000000
H    -0.494000000    -1.557000000    -5.221000000
C    -2.290000000    -1.757000000    -4.030000000
C    -2.314000000    -3.294000000    -3.969000000
H    -1.836000000    -3.683000000    -4.871000000
H    -3.330000000    -3.688000000    -3.902000000
C    -1.464000000    -3.858000000    -2.811000000
C    -0.111000000    -4.147000000    -2.896000000
H     0.487000000    -3.819000000    -3.743000000
C    -2.078000000    -4.085000000    -1.585000000
C    -1.382000000    -4.629000000    -0.487000000
H    -1.790000000    -4.685000000     0.520000000
C    -0.003000000    -4.778000000    -0.573000000
O     0.565000000    -4.986000000     0.643000000
C     1.398000000    -3.885000000     1.173000000
C     1.312000000    -3.858000000     2.747000000
C     2.502000000    -3.580000000     3.487000000
H     3.361000000    -3.366000000     2.857000000
C     0.096000000    -4.142000000     3.456000000
H    -0.819000000    -4.431000000     2.945000000
O     2.753000000    -3.966000000     0.672000000
H     0.860000000    -2.979000000     0.857000000
C     0.627000000    -4.628000000    -1.787000000
C     2.133000000    -4.865000000    -1.906000000
H     2.258000000    -5.284000000    -2.906000000
H     2.518000000    -5.550000000    -1.147000000
C     2.814000000    -3.547000000    -1.619000000
C     3.129000000    -2.638000000    -2.689000000
H     2.819000000    -2.873000000    -3.705000000
C     3.161000000    -3.167000000    -0.383000000
C     3.775000000    -1.938000000    -0.107000000
H     4.031000000    -1.673000000     0.915000000
C     4.128000000    -1.123000000    -1.111000000
O     4.677000000     0.078000000    -0.774000000
C     3.701000000     1.203000000    -0.791000000
C     3.829000000     2.002000000     0.480000000
C     4.283000000     1.359000000     1.622000000
H     4.632000000     0.331000000     1.578000000
C     3.317000000     3.311000000     0.542000000
H     2.891000000     3.748000000    -0.358000000
O     3.887000000     1.984000000    -1.993000000
H     2.672000000     0.817000000    -0.739000000
C     3.703000000    -1.436000000    -2.456000000
C     3.979000000    -0.513000000    -3.609000000
H     4.193000000    -1.029000000    -4.547000000
H     4.942000000    -0.030000000    -3.429000000
C     2.927000000     0.613000000    -3.775000000
C     2.939000000     1.720000000    -2.956000000
C     1.994000000     2.706000000    -3.221000000
H     1.998000000     3.655000000    -2.692000000
C     0.927000000     2.469000000    -4.101000000
O    -0.150000000     3.368000000    -4.156000000
C    -1.284000000     3.070000000    -3.298000000
H    -0.967000000     2.320000000    -2.558000000
C    -1.666000000     4.325000000    -2.516000000
C    -2.910000000     4.260000000    -1.858000000
H    -3.671000000     3.492000000    -1.978000000
C    -0.766000000     5.350000000    -2.348000000
H     0.136000000     5.358000000    -2.955000000
C    -1.077000000     6.378000000    -1.472000000
O    -0.212000000     7.443000000    -1.259000000
C    -2.278000000     6.344000000    -0.744000000
H    -2.493000000     7.193000000    -0.100000000
C    -3.168000000     5.259000000    -0.926000000
O    -4.285000000     5.366000000    -0.130000000
C    -5.146000000     4.322000000     0.143000000
C    -4.655000000     3.315000000     0.929000000
H    -3.619000000     3.209000000     1.241000000
C    -6.434000000     4.389000000    -0.405000000
H    -6.665000000     5.171000000    -1.124000000
C    -7.285000000     3.325000000    -0.090000000
H    -8.247000000     3.301000000    -0.595000000
C    -6.780000000     2.238000000     0.655000000
H    -7.517000000     1.496000000     0.951000000
C    -5.465000000     2.270000000     1.160000000
O    -5.030000000     1.296000000     1.972000000
C    -4.753000000    -0.018000000     1.689000000
C    -5.198000000    -0.942000000     2.597000000
H    -5.567000000    -0.523000000     3.529000000
C    -4.889000000    -2.303000000     2.377000000
O    -5.073000000    -3.115000000     3.395000000
C    -4.312000000    -4.095000000     3.902000000
C    -3.071000000    -3.797000000     4.523000000
H    -2.770000000    -2.754000000     4.477000000
C    -4.700000000    -5.446000000     3.799000000
H    -5.672000000    -5.696000000     3.382000000
C    -3.915000000    -6.459000000     4.394000000
H    -4.313000000    -7.465000000     4.505000000
C    -2.700000000    -6.115000000     4.979000000
H    -2.162000000    -6.902000000     5.502000000
C    -2.249000000    -4.810000000     5.040000000
O    -1.035000000    -4.463000000     5.652000000
C     0.097000000    -4.158000000     4.878000000
C     1.249000000    -3.726000000     5.608000000
H     1.159000000    -3.544000000     6.676000000
C     2.433000000    -3.402000000     4.904000000
O     3.477000000    -2.666000000     5.476000000
C     4.439000000    -1.917000000     4.829000000
C     4.199000000    -0.571000000     4.637000000
H     3.264000000    -0.155000000     5.002000000
C     5.703000000    -2.452000000     4.619000000
H     5.917000000    -3.478000000     4.910000000
C     6.690000000    -1.706000000     3.984000000
H     7.648000000    -2.172000000     3.764000000
C     6.384000000    -0.341000000     3.674000000
H     7.231000000     0.263000000     3.360000000
C     5.203000000     0.225000000     4.070000000
O     5.019000000     1.559000000     3.888000000
C     4.374000000     2.082000000     2.779000000
C     3.931000000     3.435000000     2.804000000
H     4.056000000     3.956000000     3.749000000
C     3.469000000     4.038000000     1.684000000
O     3.044000000     5.365000000     1.705000000
C     2.672000000     6.174000000     0.647000000
C     3.635000000     7.128000000     0.344000000
H     4.594000000     7.077000000     0.853000000
C     3.333000000     8.059000000    -0.627000000
H     4.064000000     8.783000000    -0.980000000
C     1.977000000     8.147000000    -1.102000000
H     1.670000000     8.964000000    -1.749000000
C     1.052000000     7.217000000    -0.783000000
C     1.427000000     6.161000000     0.093000000
H     0.637000000     5.540000000     0.509000000
O     0.654000000    -0.130000000     6.286000000
H     1.490000000     0.117000000     6.680000000
H     0.708000000     0.194000000     5.387000000
O    -1.471000000     3.579000000     6.467000000
H    -1.638000000     3.058000000     5.682000000
H    -0.547000000     3.820000000     6.403000000
O    -3.402000000     5.006000000     8.072000000
H    -3.573000000     5.483000000     7.259000000
H    -2.892000000     4.243000000     7.800000000
O    -7.065000000     4.850000000     2.918000000
H    -6.912000000     4.412000000     2.081000000
H    -7.140000000     4.136000000     3.552000000
O    -5.390000000     2.932000000     7.867000000
H    -4.644000000     3.496000000     8.073000000
H    -5.127000000     2.468000000     7.072000000
O    -4.618000000     4.708000000     5.055000000
H    -5.111000000     4.449000000     5.834000000
H    -4.312000000     3.882000000     4.680000000
O     1.199000000     1.274000000     4.110000000
H     1.164000000     2.201000000     4.346000000
H     1.149000000     1.268000000     3.154000000
O    -1.180000000    -2.390000000     8.395000000
H    -0.259000000    -2.476000000     8.643000000
H    -1.178000000    -2.451000000     7.440000000
O    -2.496000000     6.673000000     5.980000000
H    -2.813000000     6.434000000     5.109000000
H    -1.886000000     5.972000000     6.212000000
O    -4.918000000    -1.143000000     6.338000000
H    -4.242000000    -1.008000000     5.675000000
H    -4.433000000    -1.255000000     7.156000000
O     1.330000000     3.913000000     4.758000000
H     0.822000000     4.543000000     5.269000000
H     1.569000000     4.388000000     3.962000000
O     0.218000000     6.721000000     3.629000000
H    -0.593000000     6.224000000     3.524000000
H    -0.040000000     7.633000000     3.499000000
O    -1.847000000    -1.042000000     5.899000000
H    -0.893000000    -0.961000000     5.895000000
H    -2.143000000    -0.434000000     5.222000000
O    -7.112000000     0.211000000     5.597000000
H    -7.711000000    -0.531000000     5.678000000
H    -6.260000000    -0.140000000     5.854000000
O    -7.481000000     2.858000000     4.814000000
H    -7.466000000     1.905000000     4.899000000
H    -7.718000000     3.173000000     5.686000000
O    -4.601000000     1.759000000     5.443000000
H    -5.280000000     1.637000000     4.779000000
H    -3.802000000     1.431000000     5.031000000
O    -2.083000000     5.464000000     3.151000000
H    -2.986000000     5.622000000     2.878000000
H    -2.004000000     4.510000000     3.177000000
O    -2.353000000     1.299000000     7.934000000
H    -2.029000000     0.526000000     7.472000000
H    -2.370000000     1.986000000     7.267000000
O     0.459000000     5.968000000     6.342000000
H     0.479000000     6.724000000     5.756000000
H     0.410000000     6.346000000     7.220000000
