201
-1260.41081
C    -4.492000000     3.148000000    -2.119000000
H    -4.127000000     3.231000000    -3.140000000
C    -3.664000000     3.364000000    -1.047000000
C    -4.188000000     3.206000000     0.255000000
H    -3.502000000     3.293000000     1.093000000
C    -2.199000000     3.716000000    -1.068000000
O    -1.806000000     4.082000000    -2.441000000
H    -1.782000000     2.769000000    -0.695000000
O    -1.723000000     4.776000000    -0.161000000
C    -0.461000000     4.755000000     0.407000000
C    -0.434000000     4.322000000     1.719000000
H    -1.368000000     4.118000000     2.236000000
C     0.771000000     3.938000000     2.360000000
O     0.697000000     3.219000000     3.515000000
C     2.032000000     4.137000000     1.658000000
C     3.346000000     3.836000000     2.242000000
H     4.122000000     4.493000000     1.844000000
C     3.702000000     2.343000000     1.966000000
C     4.436000000     2.054000000     0.828000000
H     4.773000000     2.836000000     0.153000000
H     3.346000000     4.012000000     3.320000000
C     1.930000000     4.616000000     0.382000000
H     2.911000000     4.681000000    -0.081000000
C     0.708000000     4.884000000    -0.286000000
C     0.779000000     5.219000000    -1.769000000
H     1.678000000     5.767000000    -2.058000000
H    -0.133000000     5.805000000    -1.898000000
C     0.591000000     4.004000000    -2.629000000
C     1.679000000     3.262000000    -3.110000000
H     2.688000000     3.602000000    -2.890000000
C    -0.683000000     3.486000000    -2.935000000
C    -0.884000000     2.386000000    -3.720000000
H    -1.915000000     2.078000000    -3.875000000
C     0.218000000     1.660000000    -4.177000000
O     0.004000000     0.406000000    -4.781000000
C     0.387000000    -0.685000000    -3.938000000
C    -0.739000000    -1.676000000    -3.928000000
C    -0.528000000    -3.005000000    -3.541000000
H     0.494000000    -3.279000000    -3.291000000
C    -2.086000000    -1.259000000    -4.169000000
H    -2.370000000    -0.240000000    -4.419000000
O     1.603000000    -1.264000000    -4.541000000
H     0.470000000    -0.326000000    -2.902000000
C     1.511000000     2.173000000    -3.949000000
C     2.732000000     1.333000000    -4.594000000
H     3.580000000     2.003000000    -4.752000000
H     2.512000000     0.909000000    -5.576000000
C     3.240000000     0.276000000    -3.618000000
C     4.089000000     0.617000000    -2.576000000
H     4.440000000     1.645000000    -2.627000000
C     2.639000000    -0.997000000    -3.584000000
C     3.002000000    -1.945000000    -2.640000000
H     2.748000000    -2.991000000    -2.789000000
C     3.919000000    -1.606000000    -1.649000000
O     4.403000000    -2.501000000    -0.797000000
C     3.721000000    -2.422000000     0.476000000
C     3.151000000    -3.770000000     1.038000000
C     2.764000000    -4.799000000     0.181000000
H     2.785000000    -4.629000000    -0.892000000
C     2.949000000    -4.012000000     2.420000000
H     3.318000000    -3.243000000     3.095000000
O     4.505000000    -1.682000000     1.420000000
H     2.780000000    -1.875000000     0.320000000
C     4.426000000    -0.266000000    -1.556000000
C     5.480000000     0.139000000    -0.570000000
H     6.126000000     0.914000000    -0.987000000
H     6.115000000    -0.691000000    -0.252000000
C     4.725000000     0.734000000     0.634000000
C     4.248000000    -0.280000000     1.507000000
C     3.442000000     0.064000000     2.577000000
H     3.088000000    -0.626000000     3.339000000
C     3.125000000     1.384000000     2.773000000
O     2.313000000     1.655000000     3.855000000
C     0.950000000     1.802000000     3.530000000
H     0.702000000     1.329000000     2.568000000
C     0.040000000     1.148000000     4.564000000
C    -1.318000000     1.503000000     4.677000000
H    -1.614000000     2.161000000     3.864000000
C     0.514000000     0.006000000     5.259000000
H     1.564000000    -0.259000000     5.164000000
C    -0.367000000    -0.726000000     6.042000000
O     0.047000000    -2.005000000     6.668000000
C    -1.703000000    -0.355000000     6.142000000
H    -2.400000000    -0.865000000     6.802000000
C    -2.169000000     0.714000000     5.410000000
O    -3.541000000     1.001000000     5.371000000
C    -4.106000000     2.116000000     4.752000000
C    -4.925000000     1.905000000     3.624000000
H    -5.254000000     0.903000000     3.361000000
C    -3.717000000     3.441000000     5.074000000
H    -2.969000000     3.520000000     5.859000000
C    -4.151000000     4.468000000     4.287000000
H    -4.003000000     5.520000000     4.514000000
C    -4.977000000     4.261000000     3.188000000
H    -5.247000000     5.128000000     2.589000000
C    -5.328000000     2.965000000     2.832000000
O    -6.093000000     2.770000000     1.670000000
C    -5.549000000     2.915000000     0.418000000
C    -6.346000000     2.738000000    -0.727000000
H    -7.393000000     2.457000000    -0.653000000
C    -5.784000000     2.848000000    -1.990000000
O    -6.573000000     2.412000000    -3.034000000
C    -6.062000000     1.538000000    -3.952000000
C    -5.251000000     0.394000000    -3.594000000
H    -5.028000000    -0.008000000    -2.609000000
C    -6.273000000     1.763000000    -5.294000000
H    -6.767000000     2.684000000    -5.591000000
C    -5.801000000     0.811000000    -6.255000000
H    -6.062000000     0.817000000    -7.310000000
C    -5.085000000    -0.320000000    -5.869000000
H    -4.840000000    -1.114000000    -6.570000000
C    -4.793000000    -0.513000000    -4.570000000
O    -4.429000000    -1.760000000    -4.152000000
C    -3.164000000    -2.110000000    -3.959000000
C    -2.927000000    -3.474000000    -3.755000000
H    -3.799000000    -4.123000000    -3.738000000
C    -1.615000000    -3.915000000    -3.645000000
O    -1.429000000    -5.293000000    -3.315000000
C    -0.127000000    -5.744000000    -3.057000000
C     0.237000000    -6.064000000    -1.715000000
H    -0.449000000    -6.014000000    -0.874000000
C     0.769000000    -5.966000000    -4.132000000
H     0.501000000    -5.641000000    -5.134000000
C     2.050000000    -6.533000000    -3.910000000
H     2.749000000    -6.612000000    -4.739000000
C     2.406000000    -6.812000000    -2.561000000
H     3.366000000    -7.285000000    -2.371000000
C     1.447000000    -6.641000000    -1.510000000
O     1.815000000    -7.014000000    -0.212000000
C     2.246000000    -5.994000000     0.666000000
C     2.114000000    -6.212000000     2.010000000
H     1.792000000    -7.172000000     2.406000000
C     2.459000000    -5.214000000     2.902000000
O     2.445000000    -5.363000000     4.236000000
C     2.493000000    -4.351000000     5.142000000
C     3.687000000    -3.962000000     5.746000000
H     4.644000000    -4.449000000     5.573000000
C     3.691000000    -2.965000000     6.688000000
H     4.626000000    -2.600000000     7.105000000
C     2.465000000    -2.306000000     7.072000000
H     2.447000000    -1.480000000     7.779000000
C     1.279000000    -2.598000000     6.348000000
C     1.343000000    -3.614000000     5.410000000
H     0.427000000    -3.852000000     4.876000000
O    -5.654000000    -3.329000000    -1.435000000
H    -5.555000000    -2.704000000    -2.153000000
H    -5.484000000    -2.815000000    -0.645000000
O    -2.260000000    -5.113000000     3.361000000
H    -2.950000000    -4.473000000     3.192000000
H    -1.912000000    -5.324000000     2.494000000
O    -6.728000000    -3.068000000     4.844000000
H    -5.817000000    -2.786000000     4.764000000
H    -6.994000000    -3.276000000     3.949000000
O    -8.556000000    -2.092000000     0.941000000
H    -7.955000000    -2.631000000     1.456000000
H    -9.395000000    -2.550000000     0.996000000
O    -3.705000000    -3.186000000     7.150000000
H    -3.882000000    -2.743000000     6.321000000
H    -4.531000000    -3.614000000     7.374000000
O    -0.891000000    -6.664000000     5.263000000
H    -0.957000000    -6.004000000     5.953000000
H    -1.211000000    -6.221000000     4.477000000
O    -6.009000000    -6.505000000     5.089000000
H    -6.920000000    -6.661000000     4.841000000
H    -6.060000000    -6.151000000     5.977000000
O    -7.499000000    -0.715000000    -1.390000000
H    -8.020000000    -1.207000000    -0.755000000
H    -6.783000000    -0.343000000    -0.875000000
O    -6.426000000    -3.305000000     2.186000000
H    -5.591000000    -2.942000000     1.891000000
H    -6.444000000    -4.191000000     1.823000000
O    -6.808000000    -5.964000000     1.259000000
H    -6.744000000    -6.421000000     0.421000000
H    -6.690000000    -6.650000000     1.916000000
O    -3.907000000    -5.417000000    -0.285000000
H    -4.308000000    -4.810000000    -0.906000000
H    -3.739000000    -4.887000000     0.494000000
O    -8.668000000     1.136000000     1.780000000
H    -8.419000000     0.272000000     2.106000000
H    -7.857000000     1.502000000     1.427000000
O    -2.141000000    -7.067000000     1.048000000
H    -2.678000000    -6.579000000     0.424000000
H    -2.216000000    -7.979000000     0.767000000
O    -5.468000000     0.109000000     0.175000000
H    -5.175000000    -0.546000000     0.809000000
H    -4.681000000     0.614000000    -0.028000000
O    -4.355000000    -1.597000000     4.860000000
H    -3.995000000    -0.772000000     5.186000000
H    -4.376000000    -1.489000000     3.909000000
O    -5.359000000    -7.686000000    -0.422000000
H    -4.682000000    -7.010000000    -0.430000000
H    -5.854000000    -7.540000000    -1.229000000
O    -6.812000000    -5.710000000    -2.159000000
H    -7.617000000    -5.264000000    -2.423000000
H    -6.173000000    -5.005000000    -2.049000000
O    -3.953000000    -7.993000000     4.599000000
H    -4.486000000    -7.354000000     5.072000000
H    -3.318000000    -7.466000000     4.116000000
O    -8.296000000    -0.880000000     5.823000000
H    -7.459000000    -0.694000000     6.249000000
H    -8.163000000    -1.724000000     5.393000000
