201
-1264.28594
C    -2.752000000    -3.248000000     1.937000000
H    -1.880000000    -3.868000000     1.749000000
C    -3.495000000    -2.714000000     0.890000000
C    -4.633000000    -1.883000000     1.089000000
H    -5.206000000    -1.469000000     0.262000000
C    -2.847000000    -2.732000000    -0.491000000
O    -2.463000000    -4.020000000    -0.886000000
H    -2.007000000    -2.022000000    -0.502000000
O    -3.835000000    -2.237000000    -1.456000000
C    -3.458000000    -1.338000000    -2.464000000
C    -3.836000000    -0.043000000    -2.389000000
H    -4.309000000     0.329000000    -1.484000000
C    -3.349000000     0.849000000    -3.312000000
O    -3.671000000     2.167000000    -3.077000000
C    -2.514000000     0.447000000    -4.345000000
C    -1.787000000     1.420000000    -5.204000000
H    -1.520000000     1.030000000    -6.189000000
C    -0.536000000     1.929000000    -4.455000000
C     0.716000000     1.272000000    -4.675000000
H     0.752000000     0.411000000    -5.337000000
H    -2.438000000     2.216000000    -5.571000000
C    -2.206000000    -0.858000000    -4.477000000
H    -1.609000000    -1.258000000    -5.292000000
C    -2.733000000    -1.851000000    -3.617000000
C    -2.212000000    -3.325000000    -3.741000000
H    -1.934000000    -3.562000000    -4.770000000
H    -3.052000000    -3.991000000    -3.532000000
C    -1.048000000    -3.775000000    -2.849000000
C     0.256000000    -3.550000000    -3.341000000
H     0.354000000    -3.146000000    -4.345000000
C    -1.226000000    -4.183000000    -1.519000000
C    -0.116000000    -4.498000000    -0.748000000
H    -0.267000000    -4.762000000     0.296000000
C     1.149000000    -4.424000000    -1.333000000
O     2.221000000    -4.695000000    -0.526000000
C     2.794000000    -3.513000000     0.106000000
C     3.004000000    -3.640000000     1.602000000
C     3.960000000    -2.816000000     2.215000000
H     4.701000000    -2.203000000     1.709000000
C     2.287000000    -4.618000000     2.350000000
H     1.553000000    -5.219000000     1.819000000
O     4.048000000    -3.108000000    -0.568000000
H     2.030000000    -2.757000000    -0.127000000
C     1.334000000    -3.923000000    -2.561000000
C     2.769000000    -3.818000000    -3.148000000
H     2.768000000    -4.042000000    -4.216000000
H     3.516000000    -4.527000000    -2.785000000
C     3.284000000    -2.420000000    -2.786000000
C     3.064000000    -1.357000000    -3.689000000
H     2.369000000    -1.533000000    -4.506000000
C     3.948000000    -2.112000000    -1.588000000
C     4.454000000    -0.847000000    -1.299000000
H     4.915000000    -0.560000000    -0.357000000
C     4.265000000     0.158000000    -2.211000000
O     4.597000000     1.435000000    -1.885000000
C     3.388000000     2.171000000    -1.477000000
C     3.568000000     2.933000000    -0.190000000
C     4.397000000     2.397000000     0.838000000
H     4.870000000     1.442000000     0.624000000
C     2.757000000     4.025000000     0.117000000
H     2.145000000     4.445000000    -0.678000000
O     2.882000000     3.147000000    -2.411000000
H     2.622000000     1.397000000    -1.324000000
C     3.598000000    -0.066000000    -3.425000000
C     3.203000000     1.092000000    -4.357000000
H     3.237000000     0.633000000    -5.347000000
H     3.929000000     1.909000000    -4.358000000
C     1.852000000     1.645000000    -4.061000000
C     1.791000000     2.771000000    -3.211000000
C     0.644000000     3.500000000    -3.038000000
H     0.720000000     4.372000000    -2.393000000
C    -0.574000000     3.055000000    -3.586000000
O    -1.804000000     3.555000000    -3.256000000
C    -2.541000000     2.813000000    -2.318000000
H    -2.059000000     1.951000000    -1.833000000
C    -3.157000000     3.738000000    -1.229000000
C    -4.141000000     3.303000000    -0.377000000
H    -4.658000000     2.358000000    -0.526000000
C    -2.620000000     4.986000000    -1.123000000
H    -1.792000000     5.292000000    -1.758000000
C    -3.008000000     5.738000000    -0.007000000
O    -2.342000000     6.934000000     0.154000000
C    -3.895000000     5.285000000     0.965000000
H    -4.174000000     5.964000000     1.767000000
C    -4.461000000     4.021000000     0.835000000
O    -5.347000000     3.628000000     1.792000000
C    -6.050000000     2.438000000     1.625000000
C    -5.546000000     1.315000000     2.167000000
H    -4.577000000     1.231000000     2.652000000
C    -7.251000000     2.523000000     0.908000000
H    -7.462000000     3.514000000     0.514000000
C    -8.055000000     1.394000000     0.824000000
H    -9.024000000     1.368000000     0.332000000
C    -7.645000000     0.203000000     1.443000000
H    -8.362000000    -0.615000000     1.463000000
C    -6.402000000     0.175000000     2.107000000
O    -6.145000000    -1.011000000     2.703000000
C    -5.032000000    -1.741000000     2.387000000
C    -4.296000000    -2.201000000     3.429000000
H    -4.709000000    -1.978000000     4.409000000
C    -3.137000000    -2.913000000     3.254000000
O    -2.628000000    -3.467000000     4.396000000
C    -1.949000000    -4.590000000     4.410000000
C    -0.560000000    -4.549000000     4.260000000
H    -0.064000000    -3.615000000     4.008000000
C    -2.565000000    -5.772000000     4.769000000
H    -3.638000000    -5.867000000     4.912000000
C    -1.747000000    -6.873000000     4.952000000
H    -2.194000000    -7.759000000     5.396000000
C    -0.366000000    -6.855000000     4.814000000
H     0.142000000    -7.808000000     4.932000000
C     0.283000000    -5.681000000     4.509000000
O     1.642000000    -5.694000000     4.422000000
C     2.488000000    -4.783000000     3.680000000
C     3.370000000    -3.901000000     4.392000000
H     3.496000000    -4.069000000     5.459000000
C     4.037000000    -2.957000000     3.635000000
O     4.968000000    -2.172000000     4.396000000
C     5.605000000    -1.141000000     3.765000000
C     4.987000000     0.114000000     3.824000000
H     3.952000000     0.268000000     4.116000000
C     6.847000000    -1.287000000     3.236000000
H     7.326000000    -2.262000000     3.247000000
C     7.494000000    -0.189000000     2.683000000
H     8.481000000    -0.388000000     2.274000000
C     6.898000000     1.125000000     2.669000000
H     7.385000000     1.986000000     2.217000000
C     5.657000000     1.218000000     3.199000000
O     4.983000000     2.361000000     3.251000000
C     4.405000000     2.880000000     2.121000000
C     3.572000000     3.931000000     2.436000000
H     3.518000000     4.323000000     3.449000000
C     2.798000000     4.532000000     1.421000000
O     1.919000000     5.552000000     1.830000000
C     1.204000000     6.244000000     0.902000000
C     1.863000000     7.051000000    -0.042000000
H     2.939000000     7.186000000     0.038000000
C     1.123000000     7.825000000    -0.869000000
H     1.678000000     8.598000000    -1.395000000
C    -0.263000000     7.812000000    -0.781000000
H    -0.825000000     8.364000000    -1.530000000
C    -0.931000000     7.021000000     0.172000000
C    -0.203000000     6.274000000     1.094000000
H    -0.612000000     5.648000000     1.883000000
O     1.061000000     2.824000000     3.993000000
H     0.522000000     3.544000000     4.321000000
H     1.244000000     3.058000000     3.083000000
O    -1.494000000     5.611000000     8.196000000
H    -1.183000000     5.305000000     7.344000000
H    -2.413000000     5.344000000     8.225000000
O     2.121000000    -1.313000000     6.421000000
H     2.849000000    -0.776000000     6.734000000
H     1.814000000    -0.865000000     5.633000000
O    -4.154000000     4.694000000     7.705000000
H    -3.963000000     3.869000000     7.258000000
H    -5.016000000     4.559000000     8.099000000
O    -1.345000000    -0.662000000     8.723000000
H    -1.626000000    -0.420000000     9.605000000
H    -1.901000000    -1.406000000     8.490000000
O    -6.787000000     3.532000000     4.484000000
H    -6.619000000     3.554000000     3.541000000
H    -5.981000000     3.181000000     4.862000000
O    -3.539000000     2.045000000     8.748000000
H    -3.277000000     2.223000000     9.651000000
H    -2.801000000     1.562000000     8.375000000
O     1.170000000     0.443000000     8.600000000
H     1.492000000    -0.197000000     7.965000000
H     0.269000000     0.172000000     8.778000000
O    -4.575000000     2.589000000     6.010000000
H    -4.687000000     2.059000000     6.799000000
H    -4.088000000     2.024000000     5.409000000
O     1.484000000     0.179000000     4.262000000
H     1.362000000     1.107000000     4.464000000
H     0.866000000     0.006000000     3.552000000
O    -1.278000000     6.799000000     4.386000000
H    -2.180000000     6.593000000     4.140000000
H    -1.031000000     6.103000000     4.994000000
O    -6.689000000     6.235000000     5.038000000
H    -6.987000000     5.338000000     5.184000000
H    -5.761000000     6.147000000     4.821000000
O    -0.985000000     4.201000000     5.657000000
H    -0.703000000     3.415000000     6.126000000
H    -1.562000000     3.875000000     4.967000000
O     1.982000000     2.592000000     6.639000000
H     1.426000000     2.066000000     7.214000000
H     1.670000000     2.392000000     5.756000000
O    -3.390000000    -0.653000000     6.578000000
H    -3.087000000    -1.552000000     6.447000000
H    -3.124000000    -0.193000000     5.782000000
O    -8.249000000     2.619000000     6.760000000
H    -7.656000000     2.848000000     7.475000000
H    -7.865000000     3.036000000     5.988000000
O    -4.758000000    -0.550000000     9.076000000
H    -4.238000000    -0.207000000     8.349000000
H    -4.798000000     0.172000000     9.703000000
O    -4.228000000     5.201000000     4.878000000
H    -4.557000000     4.873000000     5.715000000
H    -3.751000000     4.462000000     4.502000000
O    -0.996000000     1.390000000     6.462000000
H    -1.864000000     1.341000000     6.063000000
H    -0.993000000     0.691000000     7.116000000
