201
-1251.83946
C    -3.096000000    -3.479000000     1.862000000
H    -2.470000000    -4.200000000     1.343000000
C    -3.701000000    -2.520000000     1.057000000
C    -4.493000000    -1.521000000     1.652000000
H    -4.991000000    -0.751000000     1.068000000
C    -3.418000000    -2.412000000    -0.456000000
O    -3.095000000    -3.661000000    -1.018000000
H    -2.514000000    -1.786000000    -0.411000000
O    -4.421000000    -1.814000000    -1.365000000
C    -3.992000000    -0.862000000    -2.307000000
C    -4.262000000     0.419000000    -1.871000000
H    -4.835000000     0.476000000    -0.949000000
C    -3.663000000     1.470000000    -2.604000000
O    -3.589000000     2.703000000    -2.082000000
C    -2.942000000     1.178000000    -3.801000000
C    -2.238000000     2.315000000    -4.585000000
H    -2.241000000     2.045000000    -5.643000000
C    -0.782000000     2.536000000    -4.119000000
C     0.388000000     2.012000000    -4.717000000
H     0.276000000     1.327000000    -5.554000000
H    -2.843000000     3.220000000    -4.500000000
C    -2.883000000    -0.145000000    -4.340000000
H    -2.444000000    -0.339000000    -5.316000000
C    -3.467000000    -1.176000000    -3.555000000
C    -3.242000000    -2.620000000    -3.905000000
H    -3.145000000    -2.790000000    -4.979000000
H    -4.073000000    -3.167000000    -3.454000000
C    -1.983000000    -3.200000000    -3.205000000
C    -0.802000000    -3.186000000    -3.954000000
H    -0.715000000    -2.881000000    -4.994000000
C    -1.975000000    -3.683000000    -1.819000000
C    -0.782000000    -4.269000000    -1.320000000
H    -0.831000000    -4.720000000    -0.333000000
C     0.389000000    -4.178000000    -2.112000000
O     1.553000000    -4.568000000    -1.466000000
C     2.312000000    -3.549000000    -0.787000000
C     2.672000000    -3.881000000     0.665000000
C     3.417000000    -2.974000000     1.416000000
H     3.845000000    -2.055000000     1.024000000
C     1.980000000    -4.851000000     1.342000000
H     1.277000000    -5.499000000     0.824000000
O     3.457000000    -3.280000000    -1.632000000
H     1.698000000    -2.643000000    -0.683000000
C     0.400000000    -3.569000000    -3.380000000
C     1.701000000    -3.451000000    -4.191000000
H     1.524000000    -3.433000000    -5.268000000
H     2.173000000    -4.415000000    -3.992000000
C     2.465000000    -2.197000000    -3.681000000
C     2.320000000    -1.037000000    -4.394000000
H     1.929000000    -1.108000000    -5.406000000
C     3.184000000    -2.211000000    -2.464000000
C     3.638000000    -0.976000000    -1.955000000
H     3.957000000    -0.860000000    -0.922000000
C     3.546000000     0.208000000    -2.741000000
O     4.130000000     1.350000000    -2.182000000
C     3.285000000     2.354000000    -1.526000000
C     3.784000000     2.890000000    -0.165000000
C     4.633000000     2.164000000     0.594000000
H     4.891000000     1.155000000     0.284000000
C     3.632000000     4.227000000     0.212000000
H     2.997000000     4.870000000    -0.392000000
O     2.981000000     3.388000000    -2.531000000
H     2.322000000     1.883000000    -1.278000000
C     2.831000000     0.178000000    -3.944000000
C     2.819000000     1.386000000    -4.837000000
H     2.562000000     1.193000000    -5.880000000
H     3.774000000     1.916000000    -4.832000000
C     1.693000000     2.287000000    -4.276000000
C     1.833000000     3.247000000    -3.225000000
C     0.667000000     3.770000000    -2.634000000
H     0.784000000     4.288000000    -1.686000000
C    -0.613000000     3.413000000    -3.063000000
O    -1.696000000     3.973000000    -2.395000000
C    -2.364000000     3.114000000    -1.451000000
H    -1.823000000     2.174000000    -1.268000000
C    -2.527000000     3.776000000    -0.132000000
C    -3.777000000     3.684000000     0.470000000
H    -4.644000000     3.232000000    -0.005000000
C    -1.441000000     4.411000000     0.491000000
H    -0.435000000     4.485000000     0.087000000
C    -1.621000000     4.835000000     1.816000000
O    -0.631000000     5.364000000     2.531000000
C    -2.866000000     4.775000000     2.411000000
H    -2.923000000     5.060000000     3.458000000
C    -3.891000000     4.077000000     1.817000000
O    -5.095000000     3.861000000     2.455000000
C    -5.802000000     2.732000000     2.510000000
C    -5.149000000     1.537000000     2.949000000
H    -4.076000000     1.408000000     3.068000000
C    -7.149000000     2.684000000     2.137000000
H    -7.612000000     3.534000000     1.641000000
C    -7.907000000     1.606000000     2.422000000
H    -8.969000000     1.572000000     2.194000000
C    -7.324000000     0.468000000     2.978000000
H    -7.967000000    -0.386000000     3.174000000
C    -5.957000000     0.429000000     3.246000000
O    -5.471000000    -0.656000000     3.722000000
C    -4.674000000    -1.540000000     3.034000000
C    -4.165000000    -2.637000000     3.779000000
H    -4.276000000    -2.663000000     4.860000000
C    -3.397000000    -3.611000000     3.198000000
O    -2.845000000    -4.702000000     4.003000000
C    -1.928000000    -5.549000000     3.436000000
C    -0.552000000    -5.375000000     3.744000000
H    -0.185000000    -4.451000000     4.182000000
C    -2.315000000    -6.756000000     2.818000000
H    -3.372000000    -6.925000000     2.631000000
C    -1.390000000    -7.724000000     2.410000000
H    -1.617000000    -8.745000000     2.113000000
C    -0.032000000    -7.483000000     2.606000000
H     0.720000000    -8.231000000     2.367000000
C     0.318000000    -6.349000000     3.271000000
O     1.655000000    -6.158000000     3.451000000
C     2.276000000    -5.122000000     2.694000000
C     3.204000000    -4.354000000     3.362000000
H     3.407000000    -4.596000000     4.402000000
C     3.721000000    -3.189000000     2.805000000
O     4.411000000    -2.283000000     3.599000000
C     5.442000000    -1.532000000     3.081000000
C     5.253000000    -0.099000000     2.959000000
H     4.340000000     0.426000000     3.225000000
C     6.695000000    -2.118000000     2.805000000
H     6.737000000    -3.190000000     2.979000000
C     7.755000000    -1.285000000     2.579000000
H     8.777000000    -1.644000000     2.489000000
C     7.650000000     0.134000000     2.519000000
H     8.576000000     0.689000000     2.398000000
C     6.352000000     0.711000000     2.690000000
O     6.191000000     2.073000000     2.485000000
C     5.239000000     2.667000000     1.745000000
C     5.011000000     3.958000000     2.145000000
H     5.513000000     4.342000000     3.030000000
C     4.196000000     4.738000000     1.403000000
O     3.941000000     6.035000000     1.870000000
C     2.741000000     6.573000000     1.611000000
C     2.464000000     7.622000000     0.717000000
H     3.290000000     8.182000000     0.286000000
C     1.086000000     7.926000000     0.434000000
H     0.771000000     8.692000000    -0.270000000
C     0.061000000     7.175000000     1.028000000
H    -1.001000000     7.366000000     0.903000000
C     0.377000000     6.192000000     1.985000000
C     1.660000000     5.962000000     2.278000000
H     1.906000000     5.127000000     2.928000000
O     6.617000000    -1.955000000     7.062000000
H     6.738000000    -1.026000000     6.866000000
H     5.706000000    -2.023000000     7.347000000
O    -3.065000000     2.936000000     5.445000000
H    -2.401000000     2.734000000     4.787000000
H    -3.858000000     2.506000000     5.126000000
O     4.032000000     0.276000000     6.320000000
H     4.835000000     0.558000000     5.881000000
H     3.328000000     0.675000000     5.810000000
O     4.765000000    -0.637000000     9.472000000
H     5.398000000    -0.736000000    10.183000000
H     5.029000000     0.168000000     9.027000000
O    -0.490000000    -3.957000000     7.631000000
H     0.267000000    -4.493000000     7.393000000
H    -0.272000000    -3.606000000     8.494000000
O     1.957000000    -1.680000000    10.166000000
H     2.781000000    -1.448000000    10.595000000
H     2.205000000    -1.888000000     9.266000000
O     0.155000000     4.739000000     5.233000000
H    -0.683000000     4.916000000     5.660000000
H     0.024000000     5.013000000     4.325000000
O     5.032000000     5.341000000     5.461000000
H     5.821000000     4.962000000     5.850000000
H     4.354000000     4.681000000     5.605000000
O    -1.344000000    -1.827000000     5.384000000
H    -1.338000000    -2.460000000     6.102000000
H    -0.420000000    -1.625000000     5.235000000
O     2.518000000    -1.917000000     7.273000000
H     1.720000000    -1.687000000     6.797000000
H     3.176000000    -1.300000000     6.950000000
O     2.472000000     0.810000000     8.658000000
H     3.112000000     0.576000000     7.986000000
H     2.144000000    -0.031000000     8.979000000
O     2.937000000     3.603000000     8.640000000
H     2.748000000     2.681000000     8.815000000
H     2.832000000     3.694000000     7.693000000
O     4.196000000    -4.207000000     7.883000000
H     3.611000000    -3.467000000     7.720000000
H     4.782000000    -3.902000000     8.576000000
O    -2.092000000     0.479000000     4.195000000
H    -2.101000000    -0.011000000     5.017000000
H    -1.416000000     0.052000000     3.669000000
O    -2.213000000     3.148000000     8.056000000
H    -3.048000000     3.335000000     8.486000000
H    -2.457000000     2.829000000     7.187000000
O    -0.121000000     0.454000000     7.383000000
H     0.500000000     0.976000000     7.890000000
H     0.341000000     0.258000000     6.568000000
O     0.140000000     4.845000000     8.512000000
H     0.796000000     4.231000000     8.183000000
H    -0.698000000     4.412000000     8.345000000
O    -2.387000000    -0.084000000     8.812000000
H    -2.646000000    -0.996000000     8.684000000
H    -1.733000000     0.077000000     8.131000000
O     2.474000000     3.584000000     5.834000000
H     1.598000000     3.968000000     5.799000000
H     2.375000000     2.726000000     5.422000000
