201
-1242.79840
C    -2.528000000    -4.502000000     1.914000000
H    -1.939000000    -5.295000000     1.460000000
C    -3.178000000    -3.619000000     1.108000000
C    -4.084000000    -2.772000000     1.620000000
H    -4.482000000    -1.974000000     0.997000000
C    -2.755000000    -3.471000000    -0.347000000
O    -2.033000000    -4.632000000    -0.721000000
H    -1.973000000    -2.697000000    -0.349000000
O    -3.816000000    -3.135000000    -1.241000000
C    -3.616000000    -2.298000000    -2.292000000
C    -4.206000000    -1.032000000    -2.167000000
H    -4.976000000    -0.850000000    -1.421000000
C    -3.791000000    -0.059000000    -3.063000000
O    -4.221000000     1.260000000    -2.768000000
C    -2.941000000    -0.310000000    -4.136000000
C    -2.590000000     0.807000000    -5.132000000
H    -2.483000000     0.330000000    -6.108000000
C    -1.351000000     1.570000000    -4.724000000
C    -0.080000000     1.153000000    -5.068000000
H     0.035000000     0.240000000    -5.646000000
H    -3.418000000     1.516000000    -5.199000000
C    -2.395000000    -1.566000000    -4.267000000
H    -1.619000000    -1.750000000    -5.006000000
C    -2.790000000    -2.540000000    -3.386000000
C    -2.094000000    -3.944000000    -3.480000000
H    -1.872000000    -4.244000000    -4.506000000
H    -2.684000000    -4.788000000    -3.115000000
C    -0.840000000    -3.943000000    -2.642000000
C     0.426000000    -3.640000000    -3.221000000
H     0.408000000    -3.264000000    -4.241000000
C    -0.833000000    -4.326000000    -1.299000000
C     0.378000000    -4.437000000    -0.597000000
H     0.409000000    -4.699000000     0.458000000
C     1.600000000    -4.158000000    -1.200000000
O     2.735000000    -4.079000000    -0.402000000
C     3.149000000    -2.746000000    -0.044000000
C     3.624000000    -2.824000000     1.367000000
C     4.672000000    -1.963000000     1.867000000
H     5.472000000    -1.611000000     1.221000000
C     2.843000000    -3.403000000     2.366000000
H     2.026000000    -4.088000000     2.155000000
O     4.187000000    -2.337000000    -0.919000000
H     2.291000000    -2.061000000    -0.100000000
C     1.593000000    -3.772000000    -2.532000000
C     2.853000000    -3.451000000    -3.322000000
H     2.741000000    -3.653000000    -4.389000000
H     3.690000000    -4.003000000    -2.890000000
C     3.203000000    -2.034000000    -3.150000000
C     2.803000000    -1.117000000    -4.098000000
H     2.239000000    -1.350000000    -4.998000000
C     3.793000000    -1.541000000    -1.990000000
C     3.941000000    -0.192000000    -1.755000000
H     4.464000000     0.047000000    -0.833000000
C     3.565000000     0.685000000    -2.682000000
O     3.744000000     1.978000000    -2.343000000
C     2.503000000     2.628000000    -1.886000000
C     2.735000000     3.426000000    -0.624000000
C     3.893000000     3.117000000     0.134000000
H     4.698000000     2.521000000    -0.288000000
C     1.748000000     4.221000000    -0.051000000
H     0.861000000     4.518000000    -0.604000000
O     1.933000000     3.456000000    -3.003000000
H     1.789000000     1.835000000    -1.619000000
C     2.937000000     0.289000000    -3.882000000
C     2.470000000     1.292000000    -4.871000000
H     2.339000000     0.740000000    -5.804000000
H     3.127000000     2.154000000    -5.003000000
C     1.051000000     1.826000000    -4.550000000
C     0.898000000     2.911000000    -3.766000000
C    -0.401000000     3.440000000    -3.587000000
H    -0.566000000     4.280000000    -2.916000000
C    -1.507000000     2.668000000    -3.943000000
O    -2.798000000     2.989000000    -3.441000000
C    -3.226000000     2.235000000    -2.279000000
H    -2.385000000     1.622000000    -1.924000000
C    -3.649000000     3.071000000    -1.111000000
C    -4.096000000     2.418000000     0.049000000
H    -4.218000000     1.341000000    -0.032000000
C    -3.328000000     4.455000000    -1.083000000
H    -2.872000000     5.005000000    -1.903000000
C    -3.685000000     5.112000000     0.079000000
O    -3.421000000     6.443000000     0.183000000
C    -4.289000000     4.468000000     1.191000000
H    -4.491000000     5.084000000     2.064000000
C    -4.359000000     3.096000000     1.179000000
O    -4.922000000     2.578000000     2.322000000
C    -5.661000000     1.473000000     2.265000000
C    -5.180000000     0.332000000     2.950000000
H    -4.234000000     0.357000000     3.485000000
C    -6.945000000     1.376000000     1.630000000
H    -7.369000000     2.284000000     1.209000000
C    -7.658000000     0.167000000     1.505000000
H    -8.545000000     0.061000000     0.886000000
C    -7.028000000    -0.944000000     2.147000000
H    -7.456000000    -1.943000000     2.129000000
C    -5.862000000    -0.820000000     2.913000000
O    -5.293000000    -1.957000000     3.517000000
C    -4.373000000    -2.833000000     2.979000000
C    -3.746000000    -3.805000000     3.780000000
H    -3.916000000    -3.877000000     4.852000000
C    -2.835000000    -4.642000000     3.208000000
O    -2.215000000    -5.565000000     4.002000000
C    -0.858000000    -5.613000000     4.273000000
C    -0.076000000    -4.440000000     4.342000000
H    -0.487000000    -3.451000000     4.156000000
C    -0.268000000    -6.875000000     4.557000000
H    -0.931000000    -7.732000000     4.641000000
C     1.055000000    -6.956000000     4.975000000
H     1.376000000    -7.959000000     5.244000000
C     1.821000000    -5.775000000     5.033000000
H     2.822000000    -5.799000000     5.457000000
C     1.295000000    -4.563000000     4.633000000
O     2.074000000    -3.449000000     4.674000000
C     2.989000000    -3.076000000     3.704000000
C     3.972000000    -2.226000000     4.141000000
H     4.018000000    -1.885000000     5.172000000
C     4.838000000    -1.620000000     3.241000000
O     5.738000000    -0.722000000     3.783000000
C     6.284000000     0.338000000     3.068000000
C     5.484000000     1.368000000     2.635000000
H     4.399000000     1.315000000     2.678000000
C     7.626000000     0.457000000     3.127000000
H     8.266000000    -0.322000000     3.535000000
C     8.281000000     1.634000000     2.669000000
H     9.347000000     1.784000000     2.819000000
C     7.450000000     2.681000000     2.228000000
H     7.837000000     3.652000000     1.933000000
C     6.123000000     2.536000000     2.146000000
O     5.393000000     3.661000000     1.901000000
C     4.149000000     3.710000000     1.340000000
C     3.169000000     4.568000000     1.859000000
H     3.257000000     4.963000000     2.868000000
C     2.052000000     4.809000000     1.164000000
O     1.091000000     5.657000000     1.792000000
C     0.091000000     6.467000000     1.235000000
C     0.479000000     7.730000000     0.741000000
H     1.541000000     7.955000000     0.692000000
C    -0.427000000     8.561000000     0.060000000
H    -0.035000000     9.457000000    -0.414000000
C    -1.713000000     8.030000000    -0.037000000
H    -2.393000000     8.628000000    -0.638000000
C    -2.148000000     6.882000000     0.559000000
C    -1.211000000     6.119000000     1.185000000
H    -1.523000000     5.196000000     1.667000000
O     3.023000000     1.528000000     5.634000000
H     2.073000000     1.425000000     5.592000000
H     3.188000000     2.391000000     5.254000000
O    -0.642000000    -3.731000000     7.232000000
H     0.047000000    -3.995000000     7.841000000
H    -0.321000000    -2.917000000     6.845000000
O    -3.142000000    -2.521000000     8.172000000
H    -2.690000000    -2.174000000     8.940000000
H    -2.442000000    -2.863000000     7.615000000
O    -1.555000000     3.929000000     8.781000000
H    -0.758000000     3.824000000     8.262000000
H    -2.255000000     3.604000000     8.214000000
O    -1.100000000     0.634000000     7.433000000
H    -0.363000000     0.154000000     7.811000000
H    -0.730000000     1.077000000     6.669000000
O     0.682000000     3.450000000     7.095000000
H     0.327000000     3.303000000     6.219000000
H     1.607000000     3.649000000     6.949000000
O    -3.232000000     2.741000000     4.720000000
H    -2.286000000     2.633000000     4.818000000
H    -3.409000000     2.493000000     3.812000000
O    -3.027000000     5.780000000     4.798000000
H    -2.879000000     4.849000000     4.637000000
H    -2.347000000     6.025000000     5.426000000
O     0.686000000    -1.644000000     6.401000000
H     1.298000000    -2.088000000     5.815000000
H     0.538000000    -0.791000000     5.993000000
O    -3.319000000    -0.522000000     6.223000000
H    -2.499000000    -0.135000000     6.527000000
H    -3.469000000    -1.260000000     6.814000000
O    -5.815000000     0.943000000     6.955000000
H    -5.686000000     0.700000000     7.872000000
H    -5.100000000     0.509000000     6.490000000
O     5.241000000     0.129000000     6.713000000
H     5.791000000    -0.270000000     6.039000000
H     4.548000000     0.572000000     6.225000000
O     3.264000000     4.431000000     6.000000000
H     3.295000000     5.298000000     6.406000000
H     4.123000000     4.050000000     6.184000000
O     1.221000000     0.971000000     9.068000000
H     1.066000000     1.644000000     8.404000000
H     2.118000000     1.129000000     9.363000000
O    -1.579000000     1.453000000     9.863000000
H    -1.377000000     2.388000000     9.886000000
H    -1.610000000     1.237000000     8.931000000
O     0.241000000     8.010000000     3.634000000
H     0.053000000     7.149000000     4.009000000
H     1.146000000     7.945000000     3.328000000
O    -0.030000000     5.419000000     4.944000000
H     0.436000000     5.216000000     5.755000000
H    -0.229000000     4.564000000     4.561000000
O    -6.272000000     3.425000000     4.929000000
H    -6.444000000     2.969000000     5.753000000
H    -5.320000000     3.393000000     4.832000000
O    -4.083000000     3.098000000     7.242000000
H    -4.771000000     2.459000000     7.430000000
H    -3.847000000     2.934000000     6.329000000
