201
-1235.53248
C    -3.211000000    -3.935000000     2.207000000
H    -2.871000000    -4.789000000     1.627000000
C    -3.613000000    -2.811000000     1.484000000
C    -4.145000000    -1.691000000     2.190000000
H    -4.462000000    -0.760000000     1.726000000
C    -3.241000000    -2.653000000     0.043000000
O    -2.915000000    -3.984000000    -0.506000000
H    -2.288000000    -2.114000000    -0.057000000
O    -4.303000000    -2.044000000    -0.654000000
C    -4.007000000    -1.151000000    -1.692000000
C    -4.192000000     0.147000000    -1.345000000
H    -4.444000000     0.448000000    -0.331000000
C    -3.859000000     1.160000000    -2.255000000
O    -3.863000000     2.456000000    -1.946000000
C    -3.275000000     0.724000000    -3.491000000
C    -2.746000000     1.752000000    -4.515000000
H    -2.822000000     1.309000000    -5.510000000
C    -1.324000000     2.127000000    -4.238000000
C    -0.245000000     1.520000000    -4.939000000
H    -0.466000000     0.838000000    -5.757000000
H    -3.369000000     2.647000000    -4.555000000
C    -3.163000000    -0.624000000    -3.801000000
H    -2.684000000    -0.826000000    -4.755000000
C    -3.477000000    -1.595000000    -2.895000000
C    -3.320000000    -3.037000000    -3.298000000
H    -3.308000000    -3.111000000    -4.387000000
H    -4.251000000    -3.480000000    -2.938000000
C    -2.057000000    -3.602000000    -2.666000000
C    -0.904000000    -3.540000000    -3.461000000
H    -0.850000000    -3.131000000    -4.467000000
C    -1.887000000    -4.173000000    -1.370000000
C    -0.679000000    -4.581000000    -0.815000000
H    -0.582000000    -4.785000000     0.248000000
C     0.480000000    -4.295000000    -1.515000000
O     1.700000000    -4.549000000    -0.910000000
C     2.471000000    -3.361000000    -0.484000000
C     3.000000000    -3.640000000     0.934000000
C     4.243000000    -3.166000000     1.251000000
H     4.841000000    -2.583000000     0.556000000
C     2.160000000    -4.257000000     1.933000000
H     1.186000000    -4.641000000     1.642000000
O     3.587000000    -3.053000000    -1.404000000
H     1.764000000    -2.527000000    -0.365000000
C     0.385000000    -3.836000000    -2.861000000
C     1.692000000    -3.632000000    -3.657000000
H     1.480000000    -3.626000000    -4.728000000
H     2.337000000    -4.494000000    -3.475000000
C     2.346000000    -2.345000000    -3.387000000
C     2.042000000    -1.289000000    -4.246000000
H     1.393000000    -1.476000000    -5.098000000
C     3.323000000    -2.139000000    -2.417000000
C     4.012000000    -0.912000000    -2.351000000
H     4.743000000    -0.798000000    -1.555000000
C     3.690000000     0.101000000    -3.221000000
O     4.154000000     1.362000000    -2.918000000
C     3.155000000     2.200000000    -2.254000000
C     3.729000000     2.805000000    -0.969000000
C     4.758000000     2.248000000    -0.146000000
H     5.289000000     1.375000000    -0.516000000
C     3.208000000     4.013000000    -0.437000000
H     2.501000000     4.622000000    -0.995000000
O     2.544000000     3.094000000    -3.167000000
H     2.338000000     1.526000000    -1.957000000
C     2.702000000    -0.066000000    -4.159000000
C     2.305000000     1.032000000    -5.138000000
H     2.069000000     0.559000000    -6.093000000
H     3.088000000     1.760000000    -5.361000000
C     1.092000000     1.791000000    -4.587000000
C     1.269000000     2.783000000    -3.589000000
C     0.239000000     3.538000000    -2.933000000
H     0.644000000     4.241000000    -2.208000000
C    -1.062000000     3.154000000    -3.285000000
O    -1.991000000     3.749000000    -2.445000000
C    -2.691000000     3.030000000    -1.359000000
H    -2.085000000     2.201000000    -0.963000000
C    -3.067000000     3.891000000    -0.173000000
C    -4.207000000     3.777000000     0.610000000
H    -4.908000000     3.006000000     0.304000000
C    -2.105000000     4.854000000     0.172000000
H    -1.314000000     5.023000000    -0.554000000
C    -2.228000000     5.556000000     1.372000000
O    -1.392000000     6.507000000     1.683000000
C    -3.304000000     5.348000000     2.189000000
H    -3.362000000     5.773000000     3.187000000
C    -4.242000000     4.389000000     1.822000000
O    -5.266000000     4.096000000     2.734000000
C    -5.721000000     2.795000000     3.078000000
C    -4.908000000     1.855000000     3.650000000
H    -3.858000000     2.033000000     3.871000000
C    -7.033000000     2.513000000     2.687000000
H    -7.609000000     3.318000000     2.238000000
C    -7.552000000     1.206000000     2.943000000
H    -8.547000000     0.890000000     2.640000000
C    -6.782000000     0.227000000     3.416000000
H    -7.187000000    -0.744000000     3.689000000
C    -5.454000000     0.530000000     3.756000000
O    -4.666000000    -0.543000000     4.307000000
C    -4.235000000    -1.694000000     3.563000000
C    -3.795000000    -2.795000000     4.277000000
H    -4.102000000    -2.879000000     5.317000000
C    -3.409000000    -3.938000000     3.590000000
O    -3.015000000    -5.035000000     4.299000000
C    -1.844000000    -5.637000000     4.027000000
C    -0.685000000    -4.899000000     4.295000000
H    -0.774000000    -3.851000000     4.570000000
C    -1.728000000    -6.963000000     3.605000000
H    -2.594000000    -7.610000000     3.485000000
C    -0.506000000    -7.570000000     3.402000000
H    -0.566000000    -8.636000000     3.201000000
C     0.687000000    -6.872000000     3.661000000
H     1.604000000    -7.454000000     3.620000000
C     0.599000000    -5.510000000     4.083000000
O     1.810000000    -4.892000000     4.351000000
C     2.529000000    -4.283000000     3.326000000
C     3.800000000    -3.759000000     3.621000000
H     3.983000000    -3.801000000     4.692000000
C     4.596000000    -3.199000000     2.651000000
O     5.734000000    -2.530000000     2.981000000
C     6.298000000    -1.476000000     2.291000000
C     5.896000000    -0.157000000     2.401000000
H     5.044000000     0.020000000     3.053000000
C     7.416000000    -1.637000000     1.532000000
H     7.852000000    -2.632000000     1.484000000
C     8.141000000    -0.652000000     0.918000000
H     9.000000000    -0.937000000     0.316000000
C     7.519000000     0.655000000     0.925000000
H     8.017000000     1.433000000     0.352000000
C     6.482000000     0.901000000     1.668000000
O     6.047000000     2.155000000     1.858000000
C     5.164000000     2.821000000     1.049000000
C     4.650000000     4.017000000     1.510000000
H     5.082000000     4.538000000     2.361000000
C     3.712000000     4.613000000     0.675000000
O     3.335000000     5.879000000     1.045000000
C     2.178000000     6.471000000     0.713000000
C     2.144000000     7.721000000     0.032000000
H     3.089000000     8.234000000    -0.126000000
C     0.965000000     8.449000000    -0.148000000
H     0.994000000     9.404000000    -0.666000000
C    -0.202000000     7.902000000     0.239000000
H    -1.073000000     8.470000000    -0.076000000
C    -0.209000000     6.781000000     1.022000000
C     0.929000000     6.045000000     1.271000000
H     0.891000000     5.274000000     2.036000000
O     2.131000000     1.128000000     2.507000000
H     2.815000000     0.809000000     1.919000000
H     1.341000000     1.149000000     1.967000000
O    -4.420000000    -0.323000000     7.687000000
H    -4.699000000    -0.553000000     6.800000000
H    -3.787000000     0.383000000     7.564000000
O    -0.117000000     3.549000000     8.213000000
H     0.474000000     3.774000000     8.932000000
H    -0.784000000     4.236000000     8.228000000
O    -0.201000000    -2.933000000     8.919000000
H     0.530000000    -3.486000000     9.195000000
H    -0.874000000    -3.549000000     8.632000000
O    -2.338000000     1.527000000     7.246000000
H    -1.617000000     1.281000000     7.826000000
H    -1.982000000     1.421000000     6.364000000
O     0.029000000     3.806000000     4.550000000
H     0.955000000     3.581000000     4.464000000
H    -0.408000000     2.967000000     4.701000000
O    -5.330000000    -1.621000000     9.561000000
H    -5.085000000    -1.235000000    10.402000000
H    -4.931000000    -1.047000000     8.908000000
O     0.848000000    -2.354000000     6.448000000
H     0.435000000    -2.643000000     7.262000000
H     0.136000000    -1.956000000     5.946000000
O    -2.238000000    -5.061000000     7.850000000
H    -2.740000000    -4.836000000     8.634000000
H    -2.429000000    -4.355000000     7.233000000
O     4.654000000    -0.026000000     6.459000000
H     4.101000000    -0.317000000     5.734000000
H     4.625000000    -0.748000000     7.087000000
O     2.578000000    -1.082000000     4.932000000
H     1.926000000    -0.698000000     4.346000000
H     2.062000000    -1.538000000     5.598000000
O     0.758000000     1.213000000     7.194000000
H     0.227000000     1.032000000     6.418000000
H     0.685000000     2.160000000     7.318000000
O    -1.368000000     6.288000000     5.105000000
H    -1.224000000     5.396000000     4.790000000
H    -2.084000000     6.207000000     5.735000000
O     1.894000000     4.763000000     6.598000000
H     0.983000000     4.509000000     6.750000000
H     2.256000000     4.051000000     6.071000000
O    -0.742000000    -0.332000000     9.077000000
H    -0.097000000    -0.008000000     8.449000000
H    -0.859000000    -1.253000000     8.847000000
O     2.600000000     2.997000000     4.399000000
H     3.553000000     2.960000000     4.321000000
H     2.305000000     2.120000000     4.156000000
O    -3.211000000     3.569000000     9.405000000
H    -2.800000000     2.979000000     8.773000000
H    -3.911000000     3.997000000     8.913000000
O     2.285000000     0.199000000     9.227000000
H     1.649000000     0.464000000     8.563000000
H     2.856000000    -0.424000000     8.777000000
O    -2.378000000    -2.417000000     7.088000000
H    -2.066000000    -1.828000000     6.401000000
H    -2.980000000    -1.884000000     7.606000000
