201
-1245.39424
C    -3.502000000    -3.385000000     1.149000000
H    -2.631000000    -3.872000000     0.718000000
C    -4.213000000    -2.596000000     0.200000000
C    -5.322000000    -1.813000000     0.704000000
H    -5.878000000    -1.176000000     0.021000000
C    -3.604000000    -2.487000000    -1.146000000
O    -3.159000000    -3.728000000    -1.761000000
H    -2.686000000    -1.938000000    -0.887000000
O    -4.470000000    -1.707000000    -2.021000000
C    -3.831000000    -0.653000000    -2.637000000
C    -3.983000000     0.610000000    -2.019000000
H    -4.497000000     0.683000000    -1.064000000
C    -3.376000000     1.711000000    -2.617000000
O    -3.458000000     2.812000000    -1.869000000
C    -2.692000000     1.605000000    -3.854000000
C    -1.958000000     2.861000000    -4.484000000
H    -1.842000000     2.753000000    -5.565000000
C    -0.576000000     3.053000000    -3.874000000
C     0.544000000     2.400000000    -4.427000000
H     0.403000000     1.809000000    -5.329000000
H    -2.617000000     3.715000000    -4.316000000
C    -2.466000000     0.372000000    -4.361000000
H    -1.794000000     0.245000000    -5.206000000
C    -3.047000000    -0.796000000    -3.751000000
C    -2.853000000    -2.206000000    -4.342000000
H    -2.619000000    -2.126000000    -5.406000000
H    -3.824000000    -2.704000000    -4.316000000
C    -1.751000000    -3.015000000    -3.657000000
C    -0.443000000    -2.900000000    -4.115000000
H    -0.215000000    -2.277000000    -4.977000000
C    -1.947000000    -3.787000000    -2.475000000
C    -0.838000000    -4.401000000    -1.872000000
H    -0.912000000    -4.950000000    -0.937000000
C     0.454000000    -4.207000000    -2.345000000
O     1.510000000    -4.668000000    -1.560000000
C     2.403000000    -3.653000000    -0.894000000
C     2.672000000    -3.961000000     0.563000000
C     3.635000000    -3.178000000     1.307000000
H     4.249000000    -2.424000000     0.823000000
C     1.984000000    -4.994000000     1.261000000
H     1.245000000    -5.616000000     0.762000000
O     3.641000000    -3.363000000    -1.601000000
H     1.792000000    -2.748000000    -0.766000000
C     0.637000000    -3.468000000    -3.514000000
C     2.046000000    -3.363000000    -4.127000000
H     1.924000000    -3.215000000    -5.202000000
H     2.591000000    -4.284000000    -3.911000000
C     2.770000000    -2.140000000    -3.581000000
C     2.628000000    -0.867000000    -4.190000000
H     2.038000000    -0.830000000    -5.102000000
C     3.557000000    -2.180000000    -2.380000000
C     4.045000000    -0.999000000    -1.791000000
H     4.489000000    -1.047000000    -0.799000000
C     3.956000000     0.255000000    -2.481000000
O     4.469000000     1.373000000    -1.925000000
C     3.547000000     2.207000000    -1.132000000
C     4.076000000     2.669000000     0.232000000
C     5.079000000     1.931000000     0.747000000
H     5.433000000     1.027000000     0.257000000
C     3.498000000     3.729000000     0.881000000
H     2.723000000     4.351000000     0.440000000
O     3.117000000     3.296000000    -2.022000000
H     2.690000000     1.545000000    -0.940000000
C     3.223000000     0.311000000    -3.662000000
C     2.963000000     1.683000000    -4.393000000
H     2.877000000     1.540000000    -5.472000000
H     3.840000000     2.328000000    -4.307000000
C     1.790000000     2.404000000    -3.809000000
C     1.941000000     3.083000000    -2.627000000
C     0.839000000     3.696000000    -2.007000000
H     0.960000000     4.118000000    -1.013000000
C    -0.391000000     3.736000000    -2.668000000
O    -1.500000000     4.193000000    -2.011000000
C    -2.292000000     3.275000000    -1.165000000
H    -1.642000000     2.404000000    -0.990000000
C    -2.620000000     3.847000000     0.194000000
C    -3.727000000     3.334000000     0.865000000
H    -4.295000000     2.548000000     0.374000000
C    -1.772000000     4.764000000     0.811000000
H    -0.892000000     5.102000000     0.269000000
C    -1.969000000     5.216000000     2.094000000
O    -1.080000000     6.009000000     2.756000000
C    -2.991000000     4.649000000     2.786000000
H    -3.095000000     4.990000000     3.813000000
C    -3.990000000     3.830000000     2.181000000
O    -5.014000000     3.353000000     2.938000000
C    -6.017000000     2.451000000     2.523000000
C    -5.779000000     1.080000000     2.578000000
H    -4.813000000     0.720000000     2.922000000
C    -7.259000000     2.935000000     2.245000000
H    -7.350000000     4.015000000     2.167000000
C    -8.357000000     2.042000000     2.001000000
H    -9.361000000     2.409000000     1.804000000
C    -8.106000000     0.676000000     2.059000000
H    -8.913000000    -0.033000000     1.887000000
C    -6.823000000     0.195000000     2.373000000
O    -6.689000000    -1.151000000     2.564000000
C    -5.672000000    -1.906000000     2.025000000
C    -4.931000000    -2.604000000     2.939000000
H    -5.271000000    -2.461000000     3.962000000
C    -3.784000000    -3.372000000     2.548000000
O    -3.028000000    -4.010000000     3.472000000
C    -2.274000000    -5.135000000     3.230000000
C    -0.933000000    -5.015000000     3.382000000
H    -0.612000000    -4.055000000     3.777000000
C    -2.894000000    -6.339000000     2.850000000
H    -3.973000000    -6.429000000     2.762000000
C    -2.082000000    -7.426000000     2.487000000
H    -2.473000000    -8.394000000     2.183000000
C    -0.710000000    -7.283000000     2.547000000
H    -0.067000000    -8.090000000     2.207000000
C    -0.123000000    -6.090000000     3.024000000
O     1.297000000    -6.080000000     3.299000000
C     2.114000000    -5.216000000     2.629000000
C     2.979000000    -4.424000000     3.325000000
H     3.139000000    -4.465000000     4.399000000
C     3.743000000    -3.442000000     2.712000000
O     4.658000000    -2.785000000     3.468000000
C     5.706000000    -1.993000000     2.946000000
C     5.541000000    -0.627000000     2.932000000
H     4.548000000    -0.225000000     3.115000000
C     6.908000000    -2.613000000     2.618000000
H     6.983000000    -3.697000000     2.599000000
C     8.053000000    -1.785000000     2.419000000
H     9.049000000    -2.145000000     2.172000000
C     7.902000000    -0.371000000     2.491000000
H     8.741000000     0.291000000     2.292000000
C     6.628000000     0.212000000     2.651000000
O     6.537000000     1.571000000     2.731000000
C     5.633000000     2.239000000     2.048000000
C     5.235000000     3.474000000     2.623000000
H     5.684000000     3.711000000     3.584000000
C     4.077000000     4.107000000     2.112000000
O     3.626000000     5.202000000     2.805000000
C     2.533000000     5.927000000     2.408000000
C     2.763000000     7.014000000     1.534000000
H     3.786000000     7.285000000     1.286000000
C     1.704000000     7.689000000     0.996000000
H     1.983000000     8.546000000     0.389000000
C     0.472000000     7.433000000     1.485000000
H    -0.403000000     8.025000000     1.227000000
C     0.209000000     6.366000000     2.355000000
C     1.260000000     5.637000000     2.844000000
H     1.181000000     4.766000000     3.489000000
O     2.198000000     1.349000000     7.180000000
H     1.633000000     1.609000000     6.452000000
H     2.564000000     2.172000000     7.504000000
O    -1.903000000    -6.144000000     7.453000000
H    -1.271000000    -5.678000000     8.001000000
H    -2.556000000    -5.483000000     7.225000000
O     5.664000000    -0.904000000     6.946000000
H     5.975000000    -1.585000000     6.351000000
H     4.725000000    -0.842000000     6.771000000
O    -0.229000000    -7.842000000     5.944000000
H    -0.714000000    -8.664000000     6.016000000
H    -0.875000000    -7.164000000     6.145000000
O    -3.247000000     2.745000000     8.003000000
H    -4.099000000     2.460000000     7.673000000
H    -2.614000000     2.208000000     7.527000000
O    -6.014000000    -2.443000000     7.334000000
H    -6.834000000    -1.950000000     7.300000000
H    -5.406000000    -1.933000000     6.799000000
O    -0.003000000    -1.651000000    11.302000000
H     0.285000000    -1.687000000    10.390000000
H    -0.761000000    -1.066000000    11.290000000
O    -1.220000000     0.757000000     7.465000000
H    -0.748000000     0.319000000     8.172000000
H    -1.120000000     0.174000000     6.712000000
O    -3.872000000    -1.405000000     9.181000000
H    -4.159000000    -1.749000000     8.335000000
H    -3.830000000    -2.174000000     9.750000000
O     2.417000000    -6.547000000     6.151000000
H     1.589000000    -6.997000000     5.987000000
H     2.193000000    -5.617000000     6.130000000
O    -4.147000000    -0.831000000     6.072000000
H    -4.317000000     0.084000000     5.850000000
H    -3.257000000    -0.992000000     5.759000000
O     1.499000000    -4.142000000     6.601000000
H     1.065000000    -3.351000000     6.281000000
H     1.230000000    -4.209000000     7.517000000
O    -4.511000000    -4.580000000     7.334000000
H    -5.277000000    -4.019000000     7.210000000
H    -3.763000000    -3.992000000     7.224000000
O     4.087000000    -3.636000000     6.437000000
H     3.971000000    -2.798000000     5.991000000
H     3.199000000    -3.913000000     6.662000000
O     2.992000000    -1.115000000     6.307000000
H     2.889000000    -0.246000000     6.695000000
H     2.100000000    -1.393000000     6.101000000
O     0.570000000    -4.811000000     9.190000000
H     0.211000000    -4.892000000    10.074000000
H     1.481000000    -5.093000000     9.275000000
O     0.251000000     2.214000000     5.617000000
H    -0.113000000     1.759000000     6.376000000
H    -0.418000000     2.124000000     4.939000000
O     0.571000000    -1.514000000     8.400000000
H     0.473000000    -1.726000000     7.471000000
H     1.517000000    -1.474000000     8.538000000
O    -2.175000000    -2.980000000     7.313000000
H    -1.321000000    -3.066000000     7.736000000
H    -2.015000000    -2.404000000     6.565000000
