201
-1251.84022
C    -2.125000000    -2.970000000     2.757000000
H    -1.316000000    -3.464000000     2.226000000
C    -3.200000000    -2.569000000     2.041000000
C    -4.151000000    -1.820000000     2.649000000
H    -5.007000000    -1.453000000     2.089000000
C    -3.057000000    -2.561000000     0.544000000
O    -2.482000000    -3.777000000     0.134000000
H    -2.403000000    -1.721000000     0.268000000
O    -4.294000000    -2.334000000    -0.158000000
C    -4.269000000    -1.588000000    -1.320000000
C    -4.670000000    -0.285000000    -1.169000000
H    -4.987000000    -0.061000000    -0.154000000
C    -4.427000000     0.669000000    -2.110000000
O    -4.534000000     1.975000000    -1.685000000
C    -3.761000000     0.295000000    -3.336000000
C    -3.290000000     1.325000000    -4.342000000
H    -3.316000000     0.838000000    -5.319000000
C    -1.899000000     1.845000000    -4.019000000
C    -0.773000000     1.397000000    -4.738000000
H    -0.839000000     0.737000000    -5.599000000
H    -4.005000000     2.150000000    -4.335000000
C    -3.412000000    -1.012000000    -3.571000000
H    -2.858000000    -1.296000000    -4.462000000
C    -3.612000000    -1.982000000    -2.509000000
C    -3.311000000    -3.457000000    -2.707000000
H    -3.494000000    -3.695000000    -3.757000000
H    -4.007000000    -4.154000000    -2.233000000
C    -1.908000000    -3.653000000    -2.237000000
C    -0.857000000    -3.623000000    -3.134000000
H    -1.134000000    -3.504000000    -4.179000000
C    -1.558000000    -3.756000000    -0.860000000
C    -0.269000000    -4.006000000    -0.475000000
H     0.033000000    -4.250000000     0.540000000
C     0.755000000    -3.949000000    -1.411000000
O     2.021000000    -4.240000000    -0.963000000
C     2.873000000    -3.092000000    -0.799000000
C     3.574000000    -3.185000000     0.593000000
C     4.776000000    -2.575000000     0.770000000
H     5.203000000    -2.020000000    -0.060000000
C     3.105000000    -4.038000000     1.564000000
H     2.351000000    -4.799000000     1.379000000
O     3.793000000    -3.029000000    -1.929000000
H     2.300000000    -2.153000000    -0.785000000
C     0.426000000    -3.744000000    -2.752000000
C     1.525000000    -3.626000000    -3.764000000
H     1.107000000    -3.733000000    -4.768000000
H     2.159000000    -4.479000000    -3.513000000
C     2.298000000    -2.276000000    -3.742000000
C     1.872000000    -1.227000000    -4.565000000
H     1.094000000    -1.381000000    -5.308000000
C     3.371000000    -2.061000000    -2.840000000
C     3.765000000    -0.752000000    -2.634000000
H     4.578000000    -0.547000000    -1.942000000
C     3.229000000     0.309000000    -3.382000000
O     3.612000000     1.524000000    -2.998000000
C     2.693000000     2.233000000    -2.149000000
C     3.444000000     2.979000000    -1.080000000
C     4.711000000     2.547000000    -0.578000000
H     5.123000000     1.594000000    -0.901000000
C     2.733000000     3.962000000    -0.390000000
H     1.743000000     4.233000000    -0.748000000
O     1.879000000     3.094000000    -2.993000000
H     1.907000000     1.648000000    -1.649000000
C     2.278000000     0.137000000    -4.397000000
C     1.628000000     1.288000000    -5.255000000
H     1.271000000     0.765000000    -6.145000000
H     2.485000000     1.940000000    -5.433000000
C     0.488000000     1.854000000    -4.430000000
C     0.653000000     2.709000000    -3.398000000
C    -0.387000000     3.070000000    -2.665000000
H    -0.233000000     3.843000000    -1.917000000
C    -1.713000000     2.760000000    -3.023000000
O    -2.737000000     3.303000000    -2.274000000
C    -3.279000000     2.584000000    -1.237000000
H    -2.566000000     1.774000000    -1.023000000
C    -3.487000000     3.337000000     0.042000000
C    -4.247000000     2.879000000     1.107000000
H    -4.688000000     1.889000000     1.024000000
C    -2.822000000     4.508000000     0.202000000
H    -2.123000000     4.757000000    -0.592000000
C    -2.916000000     5.328000000     1.352000000
O    -2.111000000     6.419000000     1.563000000
C    -3.794000000     4.927000000     2.362000000
H    -3.995000000     5.453000000     3.292000000
C    -4.474000000     3.693000000     2.229000000
O    -5.252000000     3.271000000     3.291000000
C    -5.842000000     2.044000000     3.383000000
C    -5.220000000     0.960000000     3.962000000
H    -4.224000000     1.041000000     4.391000000
C    -7.195000000     1.912000000     2.906000000
H    -7.777000000     2.793000000     2.648000000
C    -7.864000000     0.723000000     3.064000000
H    -8.871000000     0.681000000     2.656000000
C    -7.297000000    -0.360000000     3.721000000
H    -7.794000000    -1.312000000     3.894000000
C    -5.940000000    -0.239000000     4.117000000
O    -5.273000000    -1.271000000     4.714000000
C    -4.247000000    -1.823000000     4.078000000
C    -3.231000000    -2.399000000     4.801000000
H    -3.269000000    -2.369000000     5.887000000
C    -2.183000000    -2.988000000     4.150000000
O    -1.161000000    -3.378000000     5.058000000
C    -0.246000000    -4.411000000     4.728000000
C     1.069000000    -4.132000000     4.539000000
H     1.528000000    -3.148000000     4.592000000
C    -0.689000000    -5.737000000     4.715000000
H    -1.722000000    -6.028000000     4.886000000
C     0.153000000    -6.713000000     4.163000000
H    -0.209000000    -7.734000000     4.075000000
C     1.442000000    -6.413000000     3.878000000
H     2.077000000    -7.178000000     3.437000000
C     1.965000000    -5.159000000     4.112000000
O     3.245000000    -4.961000000     3.778000000
C     3.723000000    -4.079000000     2.817000000
C     4.915000000    -3.388000000     3.046000000
H     5.544000000    -3.561000000     3.916000000
C     5.433000000    -2.636000000     2.009000000
O     6.541000000    -1.862000000     2.172000000
C     7.004000000    -0.812000000     1.430000000
C     6.516000000     0.437000000     1.607000000
H     5.765000000     0.599000000     2.376000000
C     7.934000000    -1.080000000     0.404000000
H     8.319000000    -2.053000000     0.109000000
C     8.321000000    -0.004000000    -0.402000000
H     9.067000000    -0.184000000    -1.171000000
C     7.940000000     1.301000000    -0.056000000
H     8.269000000     2.127000000    -0.681000000
C     6.979000000     1.486000000     0.897000000
O     6.412000000     2.786000000     0.982000000
C     5.269000000     3.233000000     0.440000000
C     4.644000000     4.271000000     1.112000000
H     5.098000000     4.695000000     2.004000000
C     3.356000000     4.628000000     0.651000000
O     2.599000000     5.716000000     1.238000000
C     1.453000000     6.262000000     0.710000000
C     1.433000000     6.830000000    -0.555000000
H     2.360000000     6.961000000    -1.108000000
C     0.190000000     7.300000000    -1.047000000
H     0.257000000     7.752000000    -2.033000000
C    -0.995000000     7.188000000    -0.351000000
H    -1.929000000     7.505000000    -0.809000000
C    -0.979000000     6.584000000     0.909000000
C     0.262000000     6.162000000     1.464000000
H     0.323000000     5.554000000     2.363000000
O    -1.228000000    -1.894000000     9.893000000
H    -0.656000000    -1.485000000     9.244000000
H    -1.706000000    -2.564000000     9.403000000
O     6.947000000     2.325000000     5.090000000
H     6.350000000     2.426000000     4.349000000
H     7.553000000     1.636000000     4.818000000
O     8.087000000    -0.075000000     4.561000000
H     8.344000000    -0.747000000     3.929000000
H     7.221000000    -0.350000000     4.863000000
O    -2.627000000     0.494000000     8.522000000
H    -2.138000000    -0.013000000     7.874000000
H    -2.135000000     0.382000000     9.336000000
O     3.475000000    -2.784000000     6.760000000
H     3.160000000    -2.130000000     6.137000000
H     3.920000000    -2.275000000     7.438000000
O     4.556000000    -5.670000000     6.711000000
H     4.702000000    -5.354000000     7.603000000
H     4.197000000    -4.914000000     6.245000000
O     3.485000000     0.441000000     7.435000000
H     3.661000000     1.363000000     7.249000000
H     2.804000000     0.195000000     6.808000000
O    -0.393000000     2.123000000     6.884000000
H     0.008000000     1.458000000     6.323000000
H    -0.314000000     1.769000000     7.769000000
O     2.368000000    -1.624000000     9.540000000
H     2.161000000    -0.818000000    10.013000000
H     3.237000000    -1.469000000     9.171000000
O     5.532000000    -0.753000000     5.467000000
H     4.686000000    -0.371000000     5.703000000
H     5.317000000    -1.624000000     5.133000000
O     4.520000000     3.534000000     6.871000000
H     4.943000000     3.210000000     6.076000000
H     3.614000000     3.699000000     6.610000000
O     0.488000000     4.784000000     8.001000000
H     0.214000000     3.940000000     7.641000000
H     0.138000000     4.789000000     8.891000000
O     7.052000000     0.687000000     7.922000000
H     7.913000000     0.270000000     7.887000000
H     6.771000000     0.733000000     7.008000000
O    -0.675000000    -1.059000000     7.213000000
H    -0.025000000    -0.602000000     6.679000000
H    -0.843000000    -1.874000000     6.741000000
O     2.144000000     3.139000000     5.763000000
H     2.060000000     4.065000000     5.535000000
H     1.306000000     2.915000000     6.168000000
O     5.119000000    -1.133000000     8.861000000
H     6.028000000    -0.955000000     8.619000000
H     4.632000000    -0.375000000     8.538000000
O     4.318000000     2.408000000     3.821000000
H     3.912000000     2.052000000     3.031000000
H     3.582000000     2.594000000     4.405000000
O     0.019000000     1.301000000     9.631000000
H    -0.145000000     2.115000000    10.107000000
H     0.961000000     1.155000000     9.724000000
O     1.347000000    -4.223000000     7.907000000
H     1.272000000    -3.458000000     8.477000000
H     2.149000000    -4.072000000     7.408000000
