201
-1235.31040
C    -2.120000000    -3.553000000     2.018000000
H    -1.247000000    -3.898000000     1.470000000
C    -3.108000000    -2.847000000     1.338000000
C    -4.201000000    -2.240000000     1.958000000
H    -4.976000000    -1.740000000     1.381000000
C    -3.005000000    -2.664000000    -0.179000000
O    -2.389000000    -3.915000000    -0.762000000
H    -2.266000000    -1.869000000    -0.360000000
O    -4.295000000    -2.390000000    -0.785000000
C    -4.280000000    -1.429000000    -1.747000000
C    -4.541000000    -0.117000000    -1.358000000
H    -4.983000000     0.078000000    -0.384000000
C    -4.165000000     0.942000000    -2.102000000
O    -4.332000000     2.156000000    -1.461000000
C    -3.553000000     0.803000000    -3.347000000
C    -3.199000000     1.974000000    -4.246000000
H    -3.150000000     1.751000000    -5.314000000
C    -1.847000000     2.578000000    -3.805000000
C    -0.676000000     2.139000000    -4.434000000
H    -0.701000000     1.331000000    -5.161000000
H    -4.064000000     2.627000000    -4.108000000
C    -3.196000000    -0.556000000    -3.695000000
H    -2.594000000    -0.706000000    -4.587000000
C    -3.638000000    -1.617000000    -2.990000000
C    -3.168000000    -2.987000000    -3.396000000
H    -3.342000000    -3.161000000    -4.460000000
H    -3.821000000    -3.759000000    -2.984000000
C    -1.693000000    -3.326000000    -3.035000000
C    -0.635000000    -3.224000000    -3.968000000
H    -0.856000000    -2.944000000    -4.995000000
C    -1.454000000    -3.844000000    -1.791000000
C    -0.143000000    -4.234000000    -1.439000000
H     0.050000000    -4.678000000    -0.465000000
C     0.923000000    -3.904000000    -2.274000000
O     2.201000000    -4.168000000    -1.763000000
C     2.967000000    -3.101000000    -1.153000000
C     3.707000000    -3.374000000     0.194000000
C     4.859000000    -2.688000000     0.608000000
H     5.190000000    -1.817000000     0.049000000
C     3.239000000    -4.347000000     1.075000000
H     2.369000000    -4.944000000     0.816000000
O     3.910000000    -2.613000000    -2.154000000
H     2.231000000    -2.329000000    -0.881000000
C     0.700000000    -3.460000000    -3.555000000
C     1.944000000    -3.076000000    -4.374000000
H     1.802000000    -3.034000000    -5.456000000
H     2.743000000    -3.801000000    -4.208000000
C     2.495000000    -1.757000000    -3.924000000
C     1.990000000    -0.559000000    -4.563000000
H     1.193000000    -0.667000000    -5.294000000
C     3.399000000    -1.582000000    -2.917000000
C     3.843000000    -0.332000000    -2.451000000
H     4.542000000    -0.212000000    -1.628000000
C     3.233000000     0.806000000    -3.008000000
O     3.574000000     1.992000000    -2.500000000
C     2.633000000     2.674000000    -1.614000000
C     3.250000000     3.135000000    -0.291000000
C     4.378000000     2.501000000     0.266000000
H     4.872000000     1.684000000    -0.254000000
C     2.647000000     4.200000000     0.401000000
H     1.708000000     4.653000000     0.092000000
O     1.819000000     3.675000000    -2.318000000
H     1.925000000     1.917000000    -1.245000000
C     2.328000000     0.688000000    -4.069000000
C     1.760000000     1.943000000    -4.721000000
H     1.468000000     1.579000000    -5.708000000
H     2.547000000     2.684000000    -4.876000000
C     0.593000000     2.530000000    -4.050000000
C     0.628000000     3.415000000    -2.982000000
C    -0.438000000     3.929000000    -2.336000000
H    -0.219000000     4.582000000    -1.495000000
C    -1.703000000     3.476000000    -2.719000000
O    -2.708000000     3.802000000    -1.789000000
C    -3.197000000     2.860000000    -0.859000000
H    -2.501000000     2.008000000    -0.842000000
C    -3.362000000     3.414000000     0.528000000
C    -4.407000000     2.977000000     1.310000000
H    -4.995000000     2.105000000     1.036000000
C    -2.666000000     4.532000000     0.958000000
H    -1.917000000     4.911000000     0.267000000
C    -2.957000000     5.110000000     2.177000000
O    -2.257000000     6.220000000     2.663000000
C    -3.901000000     4.505000000     3.036000000
H    -3.974000000     4.901000000     4.045000000
C    -4.593000000     3.360000000     2.608000000
O    -5.611000000     2.787000000     3.327000000
C    -6.151000000     1.608000000     3.183000000
C    -5.501000000     0.497000000     3.777000000
H    -4.718000000     0.556000000     4.529000000
C    -7.272000000     1.438000000     2.356000000
H    -7.722000000     2.289000000     1.851000000
C    -7.751000000     0.084000000     2.169000000
H    -8.581000000     0.027000000     1.469000000
C    -7.124000000    -1.005000000     2.778000000
H    -7.500000000    -1.983000000     2.488000000
C    -5.990000000    -0.790000000     3.625000000
O    -5.250000000    -1.791000000     4.065000000
C    -4.255000000    -2.328000000     3.330000000
C    -3.361000000    -3.094000000     4.063000000
H    -3.495000000    -3.265000000     5.128000000
C    -2.270000000    -3.694000000     3.418000000
O    -1.325000000    -4.470000000     4.165000000
C    -0.429000000    -5.380000000     3.633000000
C     0.897000000    -5.046000000     3.668000000
H     1.134000000    -4.080000000     4.105000000
C    -0.901000000    -6.510000000     2.993000000
H    -1.952000000    -6.747000000     3.143000000
C    -0.010000000    -7.461000000     2.481000000
H    -0.404000000    -8.361000000     2.014000000
C     1.340000000    -7.132000000     2.511000000
H     2.071000000    -7.853000000     2.153000000
C     1.820000000    -5.896000000     3.042000000
O     3.145000000    -5.573000000     3.148000000
C     3.682000000    -4.580000000     2.331000000
C     4.802000000    -3.910000000     2.724000000
H     5.214000000    -3.998000000     3.726000000
C     5.472000000    -2.995000000     1.827000000
O     6.494000000    -2.341000000     2.408000000
C     6.937000000    -1.172000000     1.935000000
C     6.236000000    -0.013000000     2.289000000
H     5.355000000    -0.079000000     2.922000000
C     7.988000000    -1.165000000     1.044000000
H     8.437000000    -2.123000000     0.797000000
C     8.541000000     0.049000000     0.637000000
H     9.497000000     0.050000000     0.120000000
C     7.819000000     1.247000000     0.933000000
H     8.256000000     2.163000000     0.543000000
C     6.639000000     1.172000000     1.657000000
O     6.072000000     2.424000000     2.020000000
C     4.858000000     2.950000000     1.520000000
C     4.257000000     3.984000000     2.214000000
H     4.651000000     4.353000000     3.157000000
C     3.182000000     4.665000000     1.632000000
O     2.598000000     5.719000000     2.237000000
C     1.376000000     6.270000000     1.941000000
C     1.319000000     7.215000000     0.931000000
H     2.249000000     7.309000000     0.376000000
C     0.194000000     7.963000000     0.565000000
H     0.228000000     8.700000000    -0.234000000
C    -0.964000000     7.560000000     1.271000000
H    -1.848000000     8.098000000     0.937000000
C    -1.006000000     6.590000000     2.241000000
C     0.240000000     5.998000000     2.614000000
H     0.232000000     5.331000000     3.472000000
O     0.305000000     3.032000000     2.696000000
H     0.204000000     2.319000000     2.065000000
H    -0.468000000     2.967000000     3.257000000
O     2.445000000     2.704000000     4.485000000
H     1.510000000     2.714000000     4.691000000
H     2.478000000     2.649000000     3.530000000
O     3.015000000     4.188000000     6.729000000
H     2.817000000     3.773000000     5.890000000
H     3.957000000     4.061000000     6.843000000
O     2.070000000    -2.405000000    10.341000000
H     1.616000000    -1.885000000     9.678000000
H     2.977000000    -2.443000000    10.035000000
O     0.994000000    -0.692000000     8.245000000
H     1.579000000     0.054000000     8.114000000
H     0.942000000    -1.109000000     7.385000000
O     4.489000000    -5.809000000     5.919000000
H     5.389000000    -5.742000000     5.600000000
H     3.961000000    -5.912000000     5.127000000
O    -2.107000000     0.363000000     5.633000000
H    -1.241000000    -0.012000000     5.792000000
H    -2.682000000    -0.093000000     6.247000000
O    -3.639000000    -0.567000000     8.041000000
H    -4.547000000    -0.279000000     7.940000000
H    -3.554000000    -0.767000000     8.973000000
O    -1.117000000    -2.907000000     8.507000000
H    -1.381000000    -2.923000000     7.587000000
H    -0.163000000    -2.842000000     8.482000000
O     3.523000000     0.608000000     5.815000000
H     3.018000000    -0.108000000     5.430000000
H     3.145000000     1.400000000     5.433000000
O     1.986000000     1.262000000    11.066000000
H     2.125000000     1.340000000    10.122000000
H     2.867000000     1.281000000    11.440000000
O    -1.907000000     4.425000000     7.417000000
H    -2.189000000     4.323000000     8.326000000
H    -2.257000000     3.656000000     6.969000000
O    -0.931000000     1.038000000     9.749000000
H    -0.538000000     0.763000000    10.577000000
H    -0.589000000     0.419000000     9.104000000
O     4.453000000    -2.648000000     9.339000000
H     4.912000000    -3.486000000     9.391000000
H     4.188000000    -2.577000000     8.422000000
O    -2.088000000     2.447000000     3.911000000
H    -2.246000000     1.728000000     4.523000000
H    -2.345000000     3.233000000     4.393000000
O     2.882000000     1.430000000     8.427000000
H     3.185000000     1.079000000     7.589000000
H     3.192000000     2.336000000     8.433000000
O     3.378000000    -2.799000000     6.874000000
H     3.029000000    -2.149000000     6.264000000
H     3.681000000    -3.514000000     6.314000000
O     6.194000000    -0.070000000     6.433000000
H     5.272000000     0.179000000     6.373000000
H     6.201000000    -1.010000000     6.250000000
O     0.105000000     2.228000000     5.691000000
H    -0.741000000     2.295000000     5.249000000
H     0.160000000     1.312000000     5.964000000
