201
-1245.36038
C    -2.106000000    -2.866000000     2.873000000
H    -1.188000000    -3.193000000     2.390000000
C    -3.269000000    -2.521000000     2.160000000
C    -4.368000000    -1.977000000     2.824000000
H    -5.268000000    -1.582000000     2.358000000
C    -3.279000000    -2.662000000     0.664000000
O    -2.810000000    -4.022000000     0.385000000
H    -2.611000000    -1.874000000     0.285000000
O    -4.567000000    -2.410000000     0.052000000
C    -4.618000000    -1.621000000    -1.060000000
C    -4.799000000    -0.253000000    -0.872000000
H    -5.117000000     0.054000000     0.121000000
C    -4.417000000     0.672000000    -1.804000000
O    -4.289000000     2.019000000    -1.364000000
C    -3.901000000     0.181000000    -3.028000000
C    -3.478000000     1.088000000    -4.120000000
H    -3.603000000     0.601000000    -5.089000000
C    -2.072000000     1.586000000    -4.060000000
C    -1.043000000     0.860000000    -4.657000000
H    -1.300000000     0.050000000    -5.335000000
H    -4.145000000     1.950000000    -4.181000000
C    -3.735000000    -1.217000000    -3.255000000
H    -3.380000000    -1.550000000    -4.227000000
C    -4.141000000    -2.104000000    -2.279000000
C    -3.663000000    -3.548000000    -2.385000000
H    -3.786000000    -3.975000000    -3.382000000
H    -4.406000000    -4.110000000    -1.815000000
C    -2.195000000    -3.814000000    -1.928000000
C    -1.146000000    -3.772000000    -2.856000000
H    -1.419000000    -3.492000000    -3.870000000
C    -1.910000000    -4.145000000    -0.646000000
C    -0.569000000    -4.419000000    -0.220000000
H    -0.370000000    -4.753000000     0.796000000
C     0.421000000    -4.476000000    -1.170000000
O     1.723000000    -4.692000000    -0.729000000
C     2.582000000    -3.509000000    -0.683000000
C     3.586000000    -3.559000000     0.511000000
C     4.821000000    -2.924000000     0.479000000
H     5.149000000    -2.455000000    -0.445000000
C     3.107000000    -4.182000000     1.677000000
H     2.167000000    -4.723000000     1.603000000
O     3.336000000    -3.428000000    -1.914000000
H     1.866000000    -2.673000000    -0.673000000
C     0.154000000    -4.150000000    -2.505000000
C     1.160000000    -4.197000000    -3.683000000
H     0.668000000    -4.506000000    -4.607000000
H     1.831000000    -5.011000000    -3.401000000
C     1.856000000    -2.837000000    -3.743000000
C     1.461000000    -1.813000000    -4.607000000
H     0.640000000    -1.856000000    -5.317000000
C     2.972000000    -2.508000000    -2.895000000
C     3.497000000    -1.203000000    -2.838000000
H     4.225000000    -0.894000000    -2.093000000
C     3.014000000    -0.190000000    -3.621000000
O     3.459000000     1.142000000    -3.372000000
C     2.499000000     1.901000000    -2.511000000
C     3.145000000     2.727000000    -1.325000000
C     4.220000000     2.169000000    -0.610000000
H     4.611000000     1.204000000    -0.921000000
C     2.710000000     3.997000000    -0.954000000
H     1.865000000     4.391000000    -1.511000000
O     1.743000000     2.870000000    -3.344000000
H     1.760000000     1.186000000    -2.121000000
C     1.972000000    -0.530000000    -4.514000000
C     1.359000000     0.564000000    -5.350000000
H     0.983000000     0.187000000    -6.304000000
H     2.073000000     1.318000000    -5.689000000
C     0.286000000     1.338000000    -4.619000000
C     0.518000000     2.412000000    -3.736000000
C    -0.494000000     3.076000000    -3.118000000
H    -0.282000000     3.846000000    -2.380000000
C    -1.822000000     2.766000000    -3.307000000
O    -2.741000000     3.386000000    -2.481000000
C    -2.996000000     2.695000000    -1.272000000
H    -2.153000000     1.990000000    -1.213000000
C    -3.002000000     3.638000000    -0.048000000
C    -3.508000000     3.110000000     1.156000000
H    -3.922000000     2.111000000     1.270000000
C    -2.298000000     4.800000000     0.003000000
H    -1.783000000     5.174000000    -0.878000000
C    -2.228000000     5.548000000     1.173000000
O    -1.690000000     6.764000000     1.169000000
C    -2.798000000     5.051000000     2.388000000
H    -2.825000000     5.573000000     3.341000000
C    -3.532000000     3.818000000     2.299000000
O    -4.182000000     3.434000000     3.466000000
C    -5.137000000     2.442000000     3.533000000
C    -4.731000000     1.201000000     4.089000000
H    -3.721000000     1.130000000     4.485000000
C    -6.504000000     2.658000000     3.299000000
H    -6.768000000     3.666000000     2.990000000
C    -7.439000000     1.697000000     3.578000000
H    -8.470000000     1.885000000     3.287000000
C    -7.012000000     0.426000000     4.011000000
H    -7.709000000    -0.392000000     4.172000000
C    -5.674000000     0.198000000     4.296000000
O    -5.349000000    -1.049000000     4.830000000
C    -4.315000000    -1.754000000     4.217000000
C    -3.223000000    -2.169000000     4.924000000
H    -3.048000000    -2.014000000     5.985000000
C    -2.112000000    -2.585000000     4.261000000
O    -0.931000000    -2.868000000     5.038000000
C    -0.080000000    -3.969000000     4.742000000
C     1.239000000    -3.858000000     4.493000000
H     1.689000000    -2.870000000     4.554000000
C    -0.586000000    -5.228000000     4.676000000
H    -1.666000000    -5.343000000     4.708000000
C     0.133000000    -6.379000000     4.550000000
H    -0.319000000    -7.364000000     4.630000000
C     1.488000000    -6.226000000     4.329000000
H     2.203000000    -7.043000000     4.266000000
C     2.015000000    -4.948000000     4.214000000
O     3.391000000    -4.770000000     4.046000000
C     3.780000000    -4.080000000     2.853000000
C     4.983000000    -3.418000000     2.855000000
H     5.688000000    -3.526000000     3.675000000
C     5.484000000    -2.789000000     1.753000000
O     6.681000000    -2.245000000     1.843000000
C     6.989000000    -1.111000000     1.232000000
C     6.174000000     0.038000000     1.386000000
H     5.262000000    -0.055000000     1.970000000
C     8.125000000    -1.084000000     0.502000000
H     8.615000000    -2.024000000     0.263000000
C     8.512000000     0.119000000    -0.093000000
H     9.425000000     0.130000000    -0.682000000
C     7.723000000     1.272000000     0.010000000
H     8.052000000     2.258000000    -0.306000000
C     6.593000000     1.229000000     0.849000000
O     5.852000000     2.321000000     1.113000000
C     4.797000000     2.820000000     0.465000000
C     4.409000000     4.143000000     0.745000000
H     4.898000000     4.781000000     1.477000000
C     3.395000000     4.768000000     0.011000000
O     3.046000000     6.082000000     0.335000000
C     1.851000000     6.621000000    -0.035000000
C     1.790000000     7.601000000    -1.087000000
H     2.728000000     7.814000000    -1.595000000
C     0.536000000     8.205000000    -1.380000000
H     0.404000000     9.037000000    -2.067000000
C    -0.589000000     8.011000000    -0.617000000
H    -1.475000000     8.639000000    -0.658000000
C    -0.544000000     7.055000000     0.419000000
C     0.637000000     6.292000000     0.628000000
H     0.653000000     5.547000000     1.420000000
O    -1.765000000     3.654000000     5.235000000
H    -0.859000000     3.384000000     5.084000000
H    -2.193000000     3.540000000     4.386000000
O     6.429000000    -0.102000000     4.756000000
H     5.857000000    -0.581000000     5.356000000
H     5.874000000     0.591000000     4.399000000
O     1.285000000     5.774000000     4.153000000
H     0.957000000     6.321000000     4.867000000
H     1.078000000     4.879000000     4.422000000
O     2.427000000     8.042000000     2.831000000
H     2.268000000     8.354000000     3.722000000
H     2.063000000     7.157000000     2.819000000
O     2.811000000    -1.311000000     6.234000000
H     2.639000000    -0.370000000     6.274000000
H     3.696000000    -1.407000000     6.586000000
O     3.940000000     7.595000000     5.624000000
H     3.089000000     8.017000000     5.743000000
H     3.755000000     6.658000000     5.692000000
O     3.932000000     1.580000000     7.224000000
H     3.546000000     2.003000000     7.991000000
H     3.214000000     1.528000000     6.593000000
O     0.664000000     3.673000000     7.808000000
H     0.623000000     3.429000000     6.883000000
H     0.525000000     2.852000000     8.280000000
O     4.482000000     1.944000000     3.985000000
H     3.630000000     1.744000000     4.373000000
H     4.433000000     2.874000000     3.764000000
O     1.800000000     5.231000000     9.863000000
H     1.391000000     4.766000000     9.133000000
H     1.159000000     5.174000000    10.571000000
O    -1.546000000     4.683000000     8.877000000
H    -1.707000000     3.742000000     8.947000000
H    -0.678000000     4.749000000     8.478000000
O     3.944000000     3.591000000     9.323000000
H     3.396000000     4.270000000     9.716000000
H     4.705000000     3.533000000     9.900000000
O    -1.111000000     6.384000000     5.731000000
H    -1.632000000     5.588000000     5.627000000
H    -1.241000000     6.638000000     6.644000000
O    -2.413000000     1.172000000     6.584000000
H    -1.957000000     1.951000000     6.266000000
H    -1.713000000     0.556000000     6.801000000
O     3.089000000     4.858000000     6.734000000
H     3.523000000     4.421000000     7.467000000
H     2.154000000     4.737000000     6.902000000
O     6.740000000     2.131000000     7.177000000
H     7.220000000     1.302000000     7.196000000
H     5.820000000     1.877000000     7.251000000
O     3.991000000     4.945000000     4.154000000
H     3.107000000     5.310000000     4.202000000
H     4.050000000     4.360000000     4.909000000
O     0.082000000     1.937000000     9.711000000
H    -0.780000000     1.833000000    10.115000000
H     0.667000000     2.135000000    10.443000000
O    -0.203000000    -0.283000000     7.251000000
H     0.506000000    -0.779000000     6.842000000
H     0.230000000     0.248000000     7.919000000
