201
-1228.62953
C    -4.115000000    -1.483000000     3.380000000
H    -3.879000000    -2.544000000     3.400000000
C    -4.255000000    -0.752000000     2.153000000
C    -4.481000000     0.615000000     2.240000000
H    -4.441000000     1.140000000     1.290000000
C    -3.988000000    -1.386000000     0.762000000
O    -4.079000000    -2.790000000     0.951000000
H    -2.968000000    -1.006000000     0.608000000
O    -4.998000000    -1.016000000    -0.176000000
C    -4.480000000    -0.810000000    -1.389000000
C    -4.177000000     0.538000000    -1.711000000
H    -4.487000000     1.318000000    -1.021000000
C    -3.398000000     0.917000000    -2.787000000
O    -2.965000000     2.250000000    -2.897000000
C    -2.977000000    -0.096000000    -3.675000000
C    -2.254000000     0.259000000    -4.937000000
H    -2.516000000    -0.422000000    -5.750000000
C    -0.744000000     0.312000000    -4.785000000
C     0.002000000    -0.822000000    -4.878000000
H    -0.360000000    -1.817000000    -5.125000000
H    -2.587000000     1.249000000    -5.255000000
C    -3.301000000    -1.441000000    -3.372000000
H    -2.994000000    -2.248000000    -4.032000000
C    -4.035000000    -1.825000000    -2.204000000
C    -4.231000000    -3.308000000    -2.007000000
H    -4.277000000    -3.774000000    -2.994000000
H    -5.253000000    -3.527000000    -1.691000000
C    -3.103000000    -3.843000000    -1.079000000
C    -1.939000000    -4.364000000    -1.646000000
H    -1.807000000    -4.535000000    -2.711000000
C    -3.109000000    -3.561000000     0.290000000
C    -1.947000000    -3.852000000     0.989000000
H    -1.840000000    -3.508000000     2.015000000
C    -0.894000000    -4.517000000     0.528000000
O     0.115000000    -4.790000000     1.438000000
C     1.336000000    -3.914000000     1.420000000
C     1.803000000    -3.626000000     2.834000000
C     3.109000000    -3.323000000     3.065000000
H     3.776000000    -3.180000000     2.219000000
C     0.901000000    -3.516000000     3.886000000
H    -0.106000000    -3.907000000     3.766000000
O     2.364000000    -4.434000000     0.519000000
H     1.069000000    -2.966000000     0.930000000
C    -0.851000000    -4.778000000    -0.823000000
C     0.349000000    -5.406000000    -1.406000000
H     0.157000000    -6.091000000    -2.234000000
H     0.755000000    -5.921000000    -0.532000000
C     1.386000000    -4.320000000    -1.730000000
C     1.327000000    -3.649000000    -2.975000000
H     0.592000000    -4.001000000    -3.694000000
C     2.370000000    -3.913000000    -0.748000000
C     3.355000000    -2.971000000    -1.134000000
H     4.052000000    -2.580000000    -0.398000000
C     3.152000000    -2.213000000    -2.289000000
O     4.000000000    -1.168000000    -2.473000000
C     3.318000000     0.113000000    -2.432000000
C     4.049000000     1.170000000    -1.575000000
C     4.294000000     0.792000000    -0.252000000
H     4.067000000    -0.173000000     0.193000000
C     4.266000000     2.467000000    -2.020000000
H     3.964000000     2.784000000    -3.015000000
O     3.140000000     0.598000000    -3.732000000
H     2.324000000    -0.003000000    -1.976000000
C     2.160000000    -2.532000000    -3.185000000
C     2.182000000    -1.995000000    -4.568000000
H     1.966000000    -2.740000000    -5.336000000
H     3.197000000    -1.699000000    -4.842000000
C     1.383000000    -0.747000000    -4.649000000
C     1.880000000     0.484000000    -4.199000000
C     1.082000000     1.568000000    -4.009000000
H     1.476000000     2.494000000    -3.598000000
C    -0.220000000     1.546000000    -4.453000000
O    -0.988000000     2.591000000    -4.216000000
C    -1.543000000     2.580000000    -2.866000000
H    -1.195000000     1.788000000    -2.186000000
C    -1.299000000     3.955000000    -2.238000000
C    -2.246000000     4.293000000    -1.267000000
H    -3.149000000     3.708000000    -1.113000000
C    -0.182000000     4.714000000    -2.452000000
H     0.638000000     4.302000000    -3.034000000
C    -0.121000000     5.981000000    -1.910000000
O     0.848000000     6.905000000    -2.197000000
C    -1.182000000     6.484000000    -1.161000000
H    -1.184000000     7.507000000    -0.795000000
C    -2.188000000     5.599000000    -0.732000000
O    -3.070000000     5.985000000     0.276000000
C    -4.022000000     5.085000000     0.848000000
C    -3.729000000     4.401000000     2.051000000
H    -2.728000000     4.506000000     2.462000000
C    -5.255000000     5.010000000     0.228000000
H    -5.349000000     5.549000000    -0.711000000
C    -6.204000000     4.099000000     0.716000000
H    -7.153000000     4.020000000     0.192000000
C    -5.951000000     3.450000000     1.949000000
H    -6.592000000     2.721000000     2.438000000
C    -4.715000000     3.566000000     2.592000000
O    -4.457000000     2.655000000     3.578000000
C    -4.515000000     1.261000000     3.452000000
C    -4.614000000     0.526000000     4.628000000
H    -4.768000000     1.074000000     5.554000000
C    -4.341000000    -0.861000000     4.635000000
O    -4.146000000    -1.591000000     5.777000000
C    -3.176000000    -2.566000000     5.960000000
C    -1.828000000    -2.284000000     6.035000000
H    -1.580000000    -1.239000000     5.868000000
C    -3.563000000    -3.886000000     6.178000000
H    -4.622000000    -4.126000000     6.243000000
C    -2.657000000    -4.939000000     6.342000000
H    -3.002000000    -5.967000000     6.421000000
C    -1.298000000    -4.611000000     6.407000000
H    -0.676000000    -5.478000000     6.616000000
C    -0.900000000    -3.280000000     6.240000000
O     0.480000000    -3.034000000     6.223000000
C     1.326000000    -3.072000000     5.158000000
C     2.649000000    -2.800000000     5.386000000
H     3.037000000    -2.407000000     6.323000000
C     3.555000000    -2.899000000     4.283000000
O     4.892000000    -2.618000000     4.426000000
C     5.587000000    -1.818000000     3.537000000
C     5.066000000    -0.558000000     3.216000000
H     4.161000000    -0.147000000     3.656000000
C     6.810000000    -2.247000000     2.921000000
H     7.254000000    -3.232000000     3.042000000
C     7.489000000    -1.458000000     2.059000000
H     8.399000000    -1.801000000     1.573000000
C     6.844000000    -0.271000000     1.587000000
H     7.309000000     0.337000000     0.815000000
C     5.796000000     0.213000000     2.278000000
O     5.302000000     1.439000000     1.845000000
C     4.881000000     1.737000000     0.574000000
C     5.148000000     3.029000000     0.129000000
H     5.489000000     3.758000000     0.860000000
C     4.854000000     3.405000000    -1.190000000
O     4.992000000     4.667000000    -1.582000000
C     4.110000000     5.276000000    -2.419000000
C     4.687000000     5.935000000    -3.510000000
H     5.683000000     5.648000000    -3.838000000
C     3.924000000     6.893000000    -4.165000000
H     4.461000000     7.614000000    -4.777000000
C     2.623000000     7.201000000    -3.700000000
H     2.072000000     8.010000000    -4.172000000
C     2.081000000     6.518000000    -2.629000000
C     2.784000000     5.499000000    -1.987000000
H     2.326000000     4.871000000    -1.227000000
O    -1.872000000     5.734000000     7.633000000
H    -1.442000000     4.879000000     7.597000000
H    -1.677000000     6.136000000     6.787000000
O     4.013000000    -0.167000000     8.148000000
H     4.395000000    -0.850000000     8.699000000
H     3.155000000    -0.511000000     7.899000000
O     4.560000000     4.215000000     6.053000000
H     4.536000000     4.269000000     5.098000000
H     3.651000000     4.346000000     6.323000000
O    -0.834000000     6.046000000     4.797000000
H    -1.239000000     6.534000000     4.080000000
H    -0.376000000     5.324000000     4.367000000
O     1.862000000     5.904000000     1.701000000
H     1.194000000     6.557000000     1.495000000
H     1.532000000     5.461000000     2.482000000
O     6.470000000     1.885000000     5.399000000
H     5.706000000     2.336000000     5.755000000
H     6.384000000     0.984000000     5.711000000
O     2.066000000     7.662000000     5.285000000
H     1.990000000     7.273000000     4.414000000
H     2.113000000     6.913000000     5.879000000
O     1.016000000    -0.934000000     8.447000000
H     0.874000000    -0.437000000     7.642000000
H     0.354000000    -0.602000000     9.054000000
O    -0.112000000     3.299000000     7.600000000
H     0.217000000     3.120000000     8.480000000
H     0.163000000     2.542000000     7.083000000
O     1.579000000     0.434000000     6.227000000
H     2.454000000     0.804000000     6.108000000
H     0.999000000     1.035000000     5.759000000
O    -0.657000000     7.656000000     1.986000000
H    -1.538000000     7.333000000     1.798000000
H    -0.798000000     8.486000000     2.442000000
O     1.861000000     9.142000000     1.706000000
H     1.161000000     9.620000000     2.150000000
H     1.462000000     8.308000000     1.458000000
O     6.760000000     3.681000000     3.236000000
H     6.276000000     2.967000000     2.822000000
H     6.904000000     3.384000000     4.134000000
O     1.747000000     4.878000000     5.604000000
H     1.079000000     4.629000000     6.242000000
H     1.420000000     4.540000000     4.770000000
O    -4.331000000     5.483000000     5.194000000
H    -3.530000000     4.962000000     5.132000000
H    -4.263000000     5.925000000     6.040000000
O     3.144000000     2.268000000     4.797000000
H     2.429000000     2.778000000     5.176000000
H     2.768000000     1.877000000     4.008000000
O     4.306000000     6.468000000     1.147000000
H     3.471000000     6.206000000     1.536000000
H     4.957000000     6.264000000     1.817000000
O    -2.504000000     3.406000000     5.778000000
H    -1.593000000     3.247000000     5.533000000
H    -2.991000000     2.692000000     5.367000000
O    -4.563000000     3.108000000     7.469000000
H    -3.767000000     3.320000000     6.981000000
H    -4.795000000     3.922000000     7.914000000
