201
-1246.91097
C    -3.723000000    -2.255000000     3.178000000
H    -3.164000000    -3.173000000     3.020000000
C    -4.056000000    -1.517000000     2.026000000
C    -4.604000000    -0.262000000     2.093000000
H    -4.864000000     0.244000000     1.167000000
C    -3.655000000    -2.038000000     0.651000000
O    -3.434000000    -3.404000000     0.648000000
H    -2.705000000    -1.507000000     0.493000000
O    -4.521000000    -1.579000000    -0.417000000
C    -3.952000000    -1.294000000    -1.612000000
C    -4.089000000     0.070000000    -1.990000000
H    -4.577000000     0.789000000    -1.338000000
C    -3.432000000     0.533000000    -3.115000000
O    -3.336000000     1.936000000    -3.178000000
C    -2.829000000    -0.359000000    -4.009000000
C    -2.124000000     0.088000000    -5.274000000
H    -2.269000000    -0.603000000    -6.108000000
C    -0.727000000     0.585000000    -5.001000000
C     0.289000000    -0.374000000    -4.994000000
H     0.062000000    -1.418000000    -5.195000000
H    -2.658000000     0.970000000    -5.634000000
C    -2.874000000    -1.689000000    -3.671000000
H    -2.470000000    -2.371000000    -4.414000000
C    -3.400000000    -2.229000000    -2.498000000
C    -3.324000000    -3.719000000    -2.252000000
H    -3.243000000    -4.258000000    -3.199000000
H    -4.276000000    -3.956000000    -1.773000000
C    -2.243000000    -4.115000000    -1.331000000
C    -1.042000000    -4.446000000    -1.895000000
H    -0.877000000    -4.395000000    -2.968000000
C    -2.406000000    -4.063000000     0.023000000
C    -1.279000000    -4.298000000     0.844000000
H    -1.276000000    -4.163000000     1.923000000
C    -0.074000000    -4.683000000     0.355000000
O     0.981000000    -4.663000000     1.176000000
C     1.837000000    -3.489000000     1.076000000
C     2.270000000    -3.094000000     2.488000000
C     3.531000000    -2.471000000     2.672000000
H     4.220000000    -2.362000000     1.839000000
C     1.453000000    -3.305000000     3.602000000
H     0.470000000    -3.743000000     3.450000000
O     3.008000000    -3.773000000     0.342000000
H     1.329000000    -2.647000000     0.583000000
C     0.025000000    -4.772000000    -1.045000000
C     1.331000000    -5.112000000    -1.705000000
H     1.170000000    -5.529000000    -2.701000000
H     1.932000000    -5.810000000    -1.118000000
C     2.189000000    -3.865000000    -1.932000000
C     2.086000000    -3.188000000    -3.157000000
H     1.452000000    -3.613000000    -3.931000000
C     3.029000000    -3.290000000    -0.919000000
C     3.737000000    -2.102000000    -1.157000000
H     4.259000000    -1.687000000    -0.298000000
C     3.619000000    -1.489000000    -2.383000000
O     4.090000000    -0.230000000    -2.500000000
C     3.236000000     0.930000000    -2.325000000
C     3.877000000     1.847000000    -1.305000000
C     5.084000000     1.582000000    -0.727000000
H     5.689000000     0.753000000    -1.087000000
C     3.126000000     2.966000000    -0.898000000
H     2.171000000     3.241000000    -1.339000000
O     3.125000000     1.560000000    -3.578000000
H     2.254000000     0.693000000    -1.890000000
C     2.816000000    -1.985000000    -3.405000000
C     2.678000000    -1.233000000    -4.716000000
H     2.256000000    -1.905000000    -5.466000000
H     3.601000000    -0.761000000    -5.060000000
C     1.586000000    -0.051000000    -4.662000000
C     1.896000000     1.261000000    -4.161000000
C     0.919000000     2.197000000    -4.207000000
H     1.066000000     3.231000000    -3.906000000
C    -0.393000000     1.860000000    -4.545000000
O    -1.391000000     2.805000000    -4.249000000
C    -2.030000000     2.512000000    -2.980000000
H    -1.500000000     1.797000000    -2.333000000
C    -2.239000000     3.723000000    -2.046000000
C    -3.394000000     3.919000000    -1.246000000
H    -3.999000000     3.038000000    -1.046000000
C    -1.314000000     4.746000000    -2.125000000
H    -0.438000000     4.621000000    -2.757000000
C    -1.542000000     5.970000000    -1.513000000
O    -0.682000000     7.077000000    -1.497000000
C    -2.711000000     6.187000000    -0.719000000
H    -2.888000000     7.127000000    -0.203000000
C    -3.530000000     5.104000000    -0.544000000
O    -4.489000000     5.251000000     0.434000000
C    -5.355000000     4.266000000     0.910000000
C    -4.942000000     3.436000000     2.001000000
H    -4.039000000     3.657000000     2.565000000
C    -6.558000000     4.095000000     0.344000000
H    -6.999000000     4.758000000    -0.396000000
C    -7.340000000     2.943000000     0.680000000
H    -8.267000000     2.734000000     0.152000000
C    -6.933000000     2.119000000     1.743000000
H    -7.529000000     1.257000000     2.029000000
C    -5.722000000     2.339000000     2.319000000
O    -5.275000000     1.597000000     3.384000000
C    -4.853000000     0.294000000     3.284000000
C    -4.615000000    -0.417000000     4.441000000
H    -4.792000000     0.001000000     5.428000000
C    -3.948000000    -1.664000000     4.410000000
O    -3.605000000    -2.303000000     5.614000000
C    -2.592000000    -3.234000000     5.669000000
C    -1.313000000    -2.682000000     5.814000000
H    -1.100000000    -1.616000000     5.799000000
C    -2.807000000    -4.637000000     5.641000000
H    -3.761000000    -5.100000000     5.400000000
C    -1.682000000    -5.446000000     5.733000000
H    -1.870000000    -6.513000000     5.642000000
C    -0.452000000    -4.903000000     5.893000000
H     0.377000000    -5.605000000     5.892000000
C    -0.239000000    -3.592000000     5.926000000
O     1.039000000    -3.082000000     5.954000000
C     1.825000000    -2.795000000     4.837000000
C     3.069000000    -2.214000000     5.029000000
H     3.395000000    -1.869000000     6.007000000
C     3.924000000    -2.063000000     3.973000000
O     5.028000000    -1.247000000     4.188000000
C     5.792000000    -0.931000000     3.092000000
C     5.703000000     0.300000000     2.487000000
H     4.831000000     0.856000000     2.823000000
C     6.964000000    -1.687000000     2.897000000
H     7.048000000    -2.652000000     3.392000000
C     7.967000000    -1.293000000     2.059000000
H     8.781000000    -1.975000000     1.826000000
C     7.894000000    -0.078000000     1.401000000
H     8.693000000     0.335000000     0.790000000
C     6.761000000     0.730000000     1.646000000
O     6.683000000     1.984000000     1.009000000
C     5.537000000     2.295000000     0.325000000
C     4.783000000     3.333000000     0.743000000
H     5.212000000     3.931000000     1.542000000
C     3.630000000     3.741000000     0.138000000
O     3.021000000     4.940000000     0.522000000
C     2.465000000     5.836000000    -0.371000000
C     3.253000000     6.407000000    -1.311000000
H     4.330000000     6.293000000    -1.221000000
C     2.814000000     7.174000000    -2.344000000
H     3.445000000     7.648000000    -3.092000000
C     1.466000000     7.399000000    -2.442000000
H     1.059000000     7.958000000    -3.281000000
C     0.627000000     6.714000000    -1.540000000
C     1.072000000     5.925000000    -0.463000000
H     0.385000000     5.471000000     0.247000000
O    -1.149000000     3.583000000     6.838000000
H    -1.474000000     3.212000000     6.018000000
H    -0.196000000     3.561000000     6.749000000
O     0.818000000     5.335000000     3.013000000
H     0.869000000     5.762000000     3.867000000
H    -0.099000000     5.076000000     2.928000000
O    -2.243000000     7.432000000     8.164000000
H    -2.055000000     7.085000000     7.292000000
H    -1.840000000     8.300000000     8.168000000
O     0.154000000     8.618000000     1.984000000
H    -0.186000000     7.792000000     1.640000000
H    -0.417000000     8.823000000     2.725000000
O    -1.311000000     7.335000000     5.571000000
H    -1.672000000     6.487000000     5.312000000
H    -0.363000000     7.205000000     5.564000000
O     4.870000000     3.772000000     3.988000000
H     4.050000000     3.324000000     3.781000000
H     4.733000000     4.129000000     4.865000000
O     1.195000000     5.973000000     8.059000000
H     1.926000000     6.170000000     8.644000000
H     1.470000000     5.186000000     7.588000000
O    -4.832000000     6.006000000     8.272000000
H    -4.124000000     6.582000000     8.561000000
H    -4.391000000     5.201000000     8.004000000
O    -2.397000000    -1.552000000     8.422000000
H    -2.552000000    -1.213000000     7.541000000
H    -2.605000000    -0.818000000     9.001000000
O     1.932000000     3.732000000     5.909000000
H     2.786000000     3.881000000     6.315000000
H     2.136000000     3.430000000     5.025000000
O    -3.505000000     4.910000000     4.999000000
H    -3.099000000     4.066000000     4.799000000
H    -3.355000000     5.439000000     4.216000000
O     0.630000000     0.444000000     7.964000000
H     1.022000000    -0.360000000     8.303000000
H     0.417000000     0.955000000     8.745000000
O    -2.751000000     6.114000000     2.584000000
H    -2.222000000     5.338000000     2.768000000
H    -3.440000000     5.801000000     1.998000000
O     1.372000000     7.533000000     4.835000000
H     1.791000000     7.611000000     3.977000000
H     2.100000000     7.510000000     5.456000000
O    -3.955000000     8.392000000     4.098000000
H    -3.505000000     7.551000000     4.177000000
H    -4.629000000     8.242000000     3.435000000
O     2.242000000     2.781000000     3.435000000
H     1.529000000     3.266000000     3.019000000
H     2.047000000     1.862000000     3.248000000
O    -5.253000000     2.630000000     6.096000000
H    -4.905000000     2.660000000     5.205000000
H    -5.810000000     3.406000000     6.162000000
O    -1.732000000     0.643000000     6.500000000
H    -0.889000000     0.803000000     6.925000000
H    -1.810000000     1.342000000     5.851000000
O    -3.431000000     3.627000000     8.112000000
H    -2.555000000     3.502000000     7.747000000
H    -4.022000000     3.308000000     7.430000000
