201
-1237.44410
C    -4.522000000     2.790000000    -1.600000000
H    -4.317000000     2.359000000    -2.576000000
C    -3.434000000     3.347000000    -0.983000000
C    -3.552000000     3.717000000     0.343000000
H    -2.704000000     4.088000000     0.913000000
C    -2.105000000     3.465000000    -1.677000000
O    -2.252000000     3.569000000    -3.063000000
H    -1.629000000     2.551000000    -1.291000000
O    -1.356000000     4.562000000    -0.999000000
C    -0.047000000     4.360000000    -0.653000000
C     0.250000000     4.277000000     0.669000000
H    -0.505000000     4.458000000     1.429000000
C     1.540000000     4.096000000     1.126000000
O     1.894000000     3.913000000     2.432000000
C     2.517000000     4.034000000     0.147000000
C     3.913000000     3.755000000     0.582000000
H     4.558000000     4.272000000    -0.131000000
C     4.219000000     2.219000000     0.644000000
C     4.678000000     1.571000000    -0.516000000
H     5.085000000     1.987000000    -1.434000000
H     4.179000000     4.095000000     1.585000000
C     2.224000000     4.148000000    -1.193000000
H     2.954000000     4.097000000    -1.996000000
C     0.904000000     4.259000000    -1.643000000
C     0.603000000     4.451000000    -3.096000000
H     1.478000000     4.841000000    -3.619000000
H    -0.263000000     5.092000000    -3.274000000
C     0.084000000     3.170000000    -3.773000000
C     1.070000000     2.317000000    -4.307000000
H     2.102000000     2.633000000    -4.177000000
C    -1.290000000     2.789000000    -3.727000000
C    -1.656000000     1.529000000    -4.142000000
H    -2.664000000     1.150000000    -3.995000000
C    -0.668000000     0.683000000    -4.707000000
O    -1.083000000    -0.607000000    -5.001000000
C    -0.675000000    -1.573000000    -3.971000000
C    -1.835000000    -2.498000000    -3.627000000
C    -1.620000000    -3.857000000    -3.370000000
H    -0.642000000    -4.332000000    -3.369000000
C    -3.115000000    -1.994000000    -3.505000000
H    -3.317000000    -0.962000000    -3.778000000
O     0.596000000    -2.163000000    -4.351000000
H    -0.474000000    -1.019000000    -3.042000000
C     0.717000000     1.083000000    -4.832000000
C     1.882000000     0.220000000    -5.318000000
H     2.667000000     0.839000000    -5.756000000
H     1.405000000    -0.375000000    -6.100000000
C     2.530000000    -0.746000000    -4.236000000
C     3.679000000    -0.386000000    -3.612000000
H     4.255000000     0.455000000    -3.990000000
C     1.835000000    -1.873000000    -3.833000000
C     2.332000000    -2.736000000    -2.864000000
H     1.649000000    -3.496000000    -2.493000000
C     3.498000000    -2.355000000    -2.192000000
O     3.870000000    -3.011000000    -1.010000000
C     3.575000000    -2.415000000     0.287000000
C     2.959000000    -3.479000000     1.208000000
C     2.182000000    -4.493000000     0.689000000
H     1.858000000    -4.560000000    -0.347000000
C     3.205000000    -3.446000000     2.620000000
H     3.902000000    -2.708000000     3.009000000
O     4.729000000    -1.827000000     0.899000000
H     2.782000000    -1.690000000     0.051000000
C     4.172000000    -1.160000000    -2.534000000
C     5.356000000    -0.571000000    -1.767000000
H     5.955000000     0.074000000    -2.414000000
H     6.023000000    -1.390000000    -1.492000000
C     4.951000000     0.185000000    -0.489000000
C     4.775000000    -0.477000000     0.768000000
C     4.505000000     0.224000000     1.931000000
H     4.286000000    -0.241000000     2.889000000
C     4.150000000     1.559000000     1.862000000
O     3.574000000     2.209000000     2.967000000
C     2.159000000     2.465000000     2.839000000
H     1.696000000     1.877000000     2.033000000
C     1.350000000     2.145000000     4.069000000
C     0.125000000     2.772000000     4.363000000
H    -0.104000000     3.650000000     3.764000000
C     1.666000000     1.032000000     4.787000000
H     2.629000000     0.530000000     4.829000000
C     0.800000000     0.608000000     5.831000000
O     1.093000000    -0.454000000     6.662000000
C    -0.291000000     1.375000000     6.238000000
H    -1.003000000     1.070000000     7.000000000
C    -0.669000000     2.419000000     5.447000000
O    -1.900000000     3.045000000     5.784000000
C    -2.540000000     3.978000000     5.103000000
C    -3.412000000     3.555000000     4.059000000
H    -3.684000000     2.504000000     3.993000000
C    -2.018000000     5.287000000     5.138000000
H    -1.247000000     5.617000000     5.831000000
C    -2.521000000     6.228000000     4.156000000
H    -2.275000000     7.280000000     4.277000000
C    -3.498000000     5.885000000     3.232000000
H    -3.996000000     6.702000000     2.716000000
C    -3.850000000     4.513000000     3.143000000
O    -4.845000000     4.146000000     2.323000000
C    -4.713000000     3.595000000     1.099000000
C    -5.850000000     3.057000000     0.444000000
H    -6.794000000     3.029000000     0.981000000
C    -5.718000000     2.670000000    -0.913000000
O    -6.763000000     2.101000000    -1.677000000
C    -6.535000000     1.126000000    -2.648000000
C    -5.935000000    -0.140000000    -2.360000000
H    -5.521000000    -0.328000000    -1.373000000
C    -7.193000000     1.287000000    -3.896000000
H    -7.780000000     2.174000000    -4.122000000
C    -7.100000000     0.325000000    -4.879000000
H    -7.467000000     0.490000000    -5.888000000
C    -6.461000000    -0.889000000    -4.622000000
H    -6.485000000    -1.705000000    -5.340000000
C    -5.924000000    -1.140000000    -3.360000000
O    -5.495000000    -2.469000000    -3.187000000
C    -4.218000000    -2.875000000    -3.257000000
C    -3.923000000    -4.239000000    -3.052000000
H    -4.737000000    -4.916000000    -2.807000000
C    -2.665000000    -4.660000000    -3.086000000
O    -2.340000000    -6.003000000    -2.738000000
C    -1.176000000    -6.446000000    -2.147000000
C    -0.739000000    -6.046000000    -0.870000000
H    -1.345000000    -5.313000000    -0.344000000
C    -0.391000000    -7.366000000    -2.860000000
H    -0.555000000    -7.529000000    -3.923000000
C     0.709000000    -7.904000000    -2.296000000
H     1.367000000    -8.574000000    -2.843000000
C     1.035000000    -7.569000000    -0.972000000
H     1.837000000    -8.061000000    -0.428000000
C     0.366000000    -6.598000000    -0.274000000
O     0.677000000    -6.359000000     1.095000000
C     1.558000000    -5.426000000     1.541000000
C     1.870000000    -5.361000000     2.915000000
H     1.362000000    -6.098000000     3.532000000
C     2.603000000    -4.354000000     3.417000000
O     3.004000000    -4.491000000     4.723000000
C     2.983000000    -3.383000000     5.565000000
C     3.899000000    -3.457000000     6.579000000
H     4.706000000    -4.184000000     6.608000000
C     3.862000000    -2.522000000     7.611000000
H     4.531000000    -2.548000000     8.467000000
C     2.945000000    -1.456000000     7.591000000
H     2.986000000    -0.629000000     8.296000000
C     2.053000000    -1.379000000     6.597000000
C     2.083000000    -2.355000000     5.528000000
H     1.335000000    -2.353000000     4.740000000
O    -1.747000000    -7.133000000     4.012000000
H    -2.430000000    -7.507000000     4.569000000
H    -1.193000000    -7.878000000     3.780000000
O    -2.793000000    -5.333000000     1.769000000
H    -2.275000000    -6.016000000     2.194000000
H    -2.634000000    -4.549000000     2.294000000
O    -0.792000000    -1.449000000     8.644000000
H    -0.287000000    -0.663000000     8.855000000
H    -0.643000000    -1.585000000     7.708000000
O    -1.310000000    -2.238000000     5.991000000
H    -1.217000000    -3.148000000     5.711000000
H    -1.559000000    -1.766000000     5.196000000
O    -5.636000000    -0.264000000     2.177000000
H    -5.512000000    -1.212000000     2.140000000
H    -4.815000000     0.098000000     1.842000000
O    -6.671000000     1.079000000     4.231000000
H    -5.966000000     1.076000000     4.879000000
H    -6.357000000     0.505000000     3.533000000
O    -4.701000000    -6.250000000     5.371000000
H    -4.800000000    -6.618000000     4.493000000
H    -4.499000000    -5.327000000     5.223000000
O    -6.653000000    -2.250000000     4.941000000
H    -7.522000000    -2.230000000     5.343000000
H    -6.367000000    -1.336000000     4.945000000
O     0.736000000    -5.709000000     6.885000000
H     0.350000000    -5.304000000     7.662000000
H     0.505000000    -5.118000000     6.168000000
O    -5.223000000    -2.976000000     1.823000000
H    -4.302000000    -3.175000000     1.992000000
H    -5.695000000    -3.408000000     2.535000000
O    -3.078000000    -4.340000000     7.579000000
H    -3.253000000    -3.952000000     6.721000000
H    -3.928000000    -4.345000000     8.018000000
O    -7.876000000    -4.719000000     4.638000000
H    -8.195000000    -5.122000000     3.830000000
H    -7.490000000    -3.890000000     4.355000000
O    -4.901000000    -5.294000000    -0.094000000
H    -5.274000000    -4.469000000     0.215000000
H    -4.078000000    -5.380000000     0.388000000
O    -1.423000000    -4.650000000     4.579000000
H    -1.585000000    -5.521000000     4.216000000
H    -1.924000000    -4.059000000     4.016000000
O    -4.509000000     0.131000000     5.670000000
H    -4.310000000    -0.303000000     6.500000000
H    -3.856000000    -0.210000000     5.059000000
O    -7.850000000    -3.284000000    -0.125000000
H    -7.411000000    -3.786000000    -0.812000000
H    -7.553000000    -3.685000000     0.692000000
O    -3.715000000    -1.201000000     7.840000000
H    -2.982000000    -0.666000000     8.146000000
H    -3.311000000    -2.022000000     7.560000000
O    -4.879000000    -6.863000000     2.801000000
H    -5.435000000    -7.330000000     2.177000000
H    -4.515000000    -6.134000000     2.299000000
O    -4.332000000    -3.507000000     5.187000000
H    -3.638000000    -3.007000000     4.756000000
H    -5.109000000    -2.953000000     5.111000000
