201
-1259.00734
C    -1.594000000    -0.507000000     4.426000000
H    -1.755000000    -1.582000000     4.440000000
C    -2.191000000     0.423000000     3.654000000
C    -1.893000000     1.804000000     3.759000000
H    -2.323000000     2.444000000     2.993000000
C    -3.145000000     0.030000000     2.456000000
O    -3.824000000    -1.302000000     2.666000000
H    -2.502000000     0.114000000     1.568000000
O    -4.141000000     1.055000000     2.085000000
C    -4.246000000     1.289000000     0.737000000
C    -3.807000000     2.541000000     0.335000000
H    -3.391000000     3.283000000     1.011000000
C    -3.816000000     2.866000000    -0.997000000
O    -3.203000000     4.068000000    -1.389000000
C    -4.161000000     1.930000000    -1.995000000
C    -3.928000000     2.227000000    -3.455000000
H    -4.590000000     1.559000000    -4.011000000
C    -2.545000000     1.843000000    -3.935000000
C    -2.292000000     0.580000000    -4.457000000
H    -3.098000000    -0.126000000    -4.637000000
H    -4.145000000     3.261000000    -3.731000000
C    -4.572000000     0.629000000    -1.522000000
H    -4.879000000    -0.150000000    -2.215000000
C    -4.698000000     0.335000000    -0.160000000
C    -5.357000000    -1.044000000     0.109000000
H    -5.964000000    -1.435000000    -0.711000000
H    -6.034000000    -0.964000000     0.962000000
C    -4.256000000    -2.049000000     0.362000000
C    -3.952000000    -2.965000000    -0.646000000
H    -4.518000000    -2.980000000    -1.574000000
C    -3.634000000    -2.187000000     1.626000000
C    -2.518000000    -3.050000000     1.726000000
H    -1.935000000    -2.996000000     2.642000000
C    -2.258000000    -4.059000000     0.738000000
O    -1.117000000    -4.774000000     0.924000000
C     0.143000000    -4.341000000     0.301000000
C     1.260000000    -4.760000000     1.298000000
C     2.563000000    -4.654000000     0.917000000
H     2.703000000    -4.441000000    -0.140000000
C     0.978000000    -4.863000000     2.683000000
H    -0.067000000    -4.885000000     2.980000000
O     0.308000000    -5.006000000    -0.999000000
H     0.144000000    -3.246000000     0.197000000
C    -2.986000000    -3.996000000    -0.477000000
C    -2.485000000    -4.675000000    -1.766000000
H    -3.321000000    -4.861000000    -2.444000000
H    -2.257000000    -5.676000000    -1.396000000
C    -1.352000000    -3.918000000    -2.442000000
C    -1.676000000    -2.946000000    -3.369000000
H    -2.718000000    -2.751000000    -3.611000000
C    -0.017000000    -4.265000000    -2.096000000
C     1.016000000    -3.600000000    -2.767000000
H     2.054000000    -3.793000000    -2.507000000
C     0.670000000    -2.672000000    -3.773000000
O     1.703000000    -1.870000000    -4.259000000
C     1.792000000    -0.562000000    -3.592000000
C     3.205000000    -0.173000000    -3.191000000
C     4.153000000    -1.163000000    -2.944000000
H     3.859000000    -2.199000000    -3.090000000
C     3.579000000     1.134000000    -2.952000000
H     2.867000000     1.945000000    -3.079000000
O     1.336000000     0.484000000    -4.545000000
H     1.144000000    -0.482000000    -2.707000000
C    -0.653000000    -2.353000000    -4.096000000
C    -0.915000000    -1.351000000    -5.205000000
H    -1.753000000    -1.629000000    -5.848000000
H    -0.070000000    -1.300000000    -5.895000000
C    -1.021000000     0.105000000    -4.670000000
C     0.056000000     0.934000000    -4.383000000
C    -0.121000000     2.184000000    -3.870000000
H     0.692000000     2.873000000    -3.656000000
C    -1.450000000     2.680000000    -3.729000000
O    -1.565000000     3.940000000    -3.169000000
C    -1.849000000     3.930000000    -1.727000000
H    -1.607000000     2.922000000    -1.357000000
C    -0.944000000     4.926000000    -1.021000000
C    -1.376000000     5.557000000     0.178000000
H    -2.358000000     5.407000000     0.620000000
C     0.403000000     5.130000000    -1.454000000
H     0.784000000     4.691000000    -2.372000000
C     1.172000000     6.180000000    -0.936000000
O     2.413000000     6.476000000    -1.500000000
C     0.699000000     6.916000000     0.158000000
H     1.310000000     7.744000000     0.509000000
C    -0.500000000     6.546000000     0.803000000
O    -0.970000000     7.172000000     1.914000000
C    -1.641000000     6.471000000     2.963000000
C    -0.957000000     5.379000000     3.565000000
H     0.057000000     5.111000000     3.279000000
C    -2.892000000     6.825000000     3.382000000
H    -3.354000000     7.701000000     2.936000000
C    -3.466000000     6.138000000     4.401000000
H    -4.456000000     6.407000000     4.760000000
C    -2.847000000     4.968000000     4.897000000
H    -3.416000000     4.388000000     5.619000000
C    -1.640000000     4.542000000     4.403000000
O    -0.905000000     3.567000000     4.999000000
C    -1.168000000     2.222000000     4.852000000
C    -0.530000000     1.316000000     5.631000000
H     0.118000000     1.676000000     6.426000000
C    -0.747000000    -0.074000000     5.465000000
O    -0.168000000    -0.893000000     6.410000000
C    -0.304000000    -2.265000000     6.235000000
C     0.665000000    -3.002000000     5.621000000
H     1.462000000    -2.481000000     5.096000000
C    -1.405000000    -2.890000000     6.935000000
H    -2.043000000    -2.245000000     7.534000000
C    -1.515000000    -4.256000000     6.903000000
H    -2.269000000    -4.785000000     7.480000000
C    -0.520000000    -5.017000000     6.287000000
H    -0.562000000    -6.103000000     6.270000000
C     0.504000000    -4.400000000     5.519000000
O     1.542000000    -5.138000000     4.955000000
C     1.970000000    -4.954000000     3.649000000
C     3.318000000    -4.919000000     3.219000000
H     4.128000000    -4.950000000     3.944000000
C     3.643000000    -4.823000000     1.865000000
O     4.993000000    -4.919000000     1.430000000
C     5.325000000    -4.769000000     0.134000000
C     5.760000000    -3.494000000    -0.289000000
H     5.790000000    -2.776000000     0.526000000
C     5.060000000    -5.697000000    -0.873000000
H     4.675000000    -6.665000000    -0.563000000
C     5.321000000    -5.414000000    -2.207000000
H     4.996000000    -6.153000000    -2.935000000
C     5.795000000    -4.197000000    -2.653000000
H     5.904000000    -4.005000000    -3.717000000
C     5.993000000    -3.244000000    -1.642000000
O     6.269000000    -1.985000000    -2.080000000
C     5.411000000    -0.938000000    -2.465000000
C     5.712000000     0.389000000    -2.028000000
H     6.684000000     0.480000000    -1.549000000
C     4.810000000     1.392000000    -2.307000000
O     5.209000000     2.669000000    -1.947000000
C     4.569000000     3.722000000    -2.543000000
C     4.702000000     3.968000000    -3.973000000
H     5.461000000     3.366000000    -4.467000000
C     4.013000000     5.074000000    -4.535000000
H     4.073000000     5.214000000    -5.611000000
C     3.126000000     5.789000000    -3.682000000
H     2.469000000     6.559000000    -4.077000000
C     3.089000000     5.590000000    -2.322000000
C     3.813000000     4.586000000    -1.731000000
H     3.648000000     4.370000000    -0.679000000
O     2.854000000     5.209000000     5.349000000
H     2.976000000     4.359000000     4.925000000
H     2.230000000     5.037000000     6.054000000
O     5.464000000     2.655000000     5.180000000
H     4.733000000     2.204000000     4.757000000
H     5.053000000     3.200000000     5.851000000
O     2.748000000     2.028000000     8.082000000
H     2.884000000     1.220000000     7.586000000
H     3.273000000     2.683000000     7.621000000
O     4.398000000     4.922000000     2.512000000
H     3.803000000     4.423000000     3.072000000
H     5.213000000     4.420000000     2.522000000
O     7.560000000    -2.594000000     3.746000000
H     7.727000000    -1.679000000     3.970000000
H     7.978000000    -2.712000000     2.894000000
O     5.630000000     6.850000000     4.162000000
H     4.892000000     7.457000000     4.213000000
H     5.229000000     5.997000000     3.994000000
O     4.898000000     3.799000000     7.400000000
H     5.397000000     3.319000000     8.062000000
H     4.611000000     4.595000000     7.847000000
O     4.788000000    -0.332000000     2.209000000
H     4.080000000    -0.368000000     1.565000000
H     4.380000000     0.035000000     2.993000000
O     3.606000000    -0.016000000     6.501000000
H     3.641000000     0.432000000     5.656000000
H     4.260000000    -0.712000000     6.431000000
O     2.143000000    -1.432000000     8.285000000
H     2.371000000    -2.329000000     8.043000000
H     2.762000000    -0.888000000     7.798000000
O     8.335000000     0.362000000     4.116000000
H     8.107000000     1.074000000     4.713000000
H     9.265000000     0.203000000     4.276000000
O     8.025000000     2.163000000     6.096000000
H     7.096000000     2.322000000     5.932000000
H     8.390000000     3.032000000     6.267000000
O     6.099000000     5.993000000    -0.199000000
H     6.052000000     5.038000000    -0.157000000
H     6.626000000     6.241000000     0.561000000
O     3.761000000     7.336000000     1.480000000
H     4.609000000     7.232000000     1.047000000
H     3.594000000     6.486000000     1.887000000
O     2.845000000     8.068000000     4.589000000
H     2.922000000     7.161000000     4.884000000
H     3.086000000     8.590000000     5.355000000
O     6.721000000     3.621000000     2.946000000
H     6.274000000     3.200000000     3.680000000
H     6.985000000     2.896000000     2.378000000
O     7.217000000     1.254000000     1.676000000
H     7.423000000     0.986000000     2.571000000
H     6.338000000     0.911000000     1.519000000
O     5.229000000    -2.328000000     6.421000000
H     5.405000000    -3.048000000     5.816000000
H     6.076000000    -1.894000000     6.530000000
O     1.018000000     4.776000000     7.306000000
H     1.041000000     4.161000000     8.039000000
H     0.527000000     4.317000000     6.624000000
