201
-1240.50636
C    -4.188000000     0.548000000     3.139000000
H    -4.288000000    -0.534000000     3.143000000
C    -4.293000000     1.234000000     1.927000000
C    -4.119000000     2.661000000     1.917000000
H    -3.987000000     3.218000000     0.993000000
C    -4.348000000     0.425000000     0.600000000
O    -5.126000000    -0.772000000     0.647000000
H    -3.303000000     0.096000000     0.497000000
O    -4.740000000     1.243000000    -0.492000000
C    -4.024000000     1.273000000    -1.611000000
C    -3.212000000     2.370000000    -1.823000000
H    -3.025000000     3.201000000    -1.148000000
C    -2.466000000     2.364000000    -2.974000000
O    -1.577000000     3.395000000    -3.103000000
C    -2.498000000     1.342000000    -3.913000000
C    -1.560000000     1.368000000    -5.131000000
H    -2.072000000     0.790000000    -5.903000000
C    -0.206000000     0.791000000    -4.671000000
C     0.108000000    -0.573000000    -4.851000000
H    -0.671000000    -1.250000000    -5.191000000
H    -1.499000000     2.409000000    -5.453000000
C    -3.403000000     0.299000000    -3.741000000
H    -3.453000000    -0.583000000    -4.375000000
C    -4.188000000     0.247000000    -2.563000000
C    -5.141000000    -0.928000000    -2.299000000
H    -5.527000000    -1.366000000    -3.222000000
H    -6.025000000    -0.536000000    -1.793000000
C    -4.438000000    -2.003000000    -1.413000000
C    -3.527000000    -2.907000000    -2.024000000
H    -3.438000000    -2.818000000    -3.104000000
C    -4.540000000    -1.834000000     0.003000000
C    -3.707000000    -2.721000000     0.762000000
H    -3.654000000    -2.594000000     1.840000000
C    -2.800000000    -3.651000000     0.172000000
O    -1.928000000    -4.214000000     1.062000000
C    -0.510000000    -3.871000000     1.040000000
C     0.146000000    -3.952000000     2.435000000
C     1.473000000    -4.432000000     2.644000000
H     2.028000000    -4.603000000     1.725000000
C    -0.581000000    -3.561000000     3.533000000
H    -1.615000000    -3.261000000     3.384000000
O     0.144000000    -4.741000000     0.158000000
H    -0.439000000    -2.849000000     0.642000000
C    -2.771000000    -3.789000000    -1.226000000
C    -1.943000000    -4.872000000    -1.950000000
H    -2.334000000    -5.211000000    -2.911000000
H    -1.778000000    -5.848000000    -1.488000000
C    -0.520000000    -4.341000000    -2.186000000
C    -0.072000000    -3.824000000    -3.386000000
H    -0.755000000    -3.846000000    -4.231000000
C     0.357000000    -4.320000000    -1.085000000
C     1.636000000    -3.811000000    -1.269000000
H     2.313000000    -3.723000000    -0.423000000
C     2.086000000    -3.290000000    -2.415000000
O     3.363000000    -2.753000000    -2.440000000
C     3.397000000    -1.325000000    -2.234000000
C     4.583000000    -0.943000000    -1.328000000
C     5.087000000    -1.892000000    -0.431000000
H     4.617000000    -2.837000000    -0.172000000
C     5.135000000     0.325000000    -1.358000000
H     4.803000000     1.121000000    -2.019000000
O     3.490000000    -0.704000000    -3.513000000
H     2.507000000    -1.018000000    -1.664000000
C     1.194000000    -3.257000000    -3.476000000
C     1.589000000    -2.539000000    -4.733000000
H     1.124000000    -2.933000000    -5.639000000
H     2.640000000    -2.727000000    -4.961000000
C     1.365000000    -1.099000000    -4.582000000
C     2.343000000    -0.201000000    -4.082000000
C     2.081000000     1.163000000    -3.887000000
H     2.880000000     1.767000000    -3.466000000
C     0.783000000     1.624000000    -4.134000000
O     0.632000000     2.954000000    -3.719000000
C    -0.275000000     3.142000000    -2.557000000
H    -0.317000000     2.279000000    -1.877000000
C     0.161000000     4.308000000    -1.657000000
C    -0.757000000     5.346000000    -1.275000000
H    -1.768000000     5.404000000    -1.669000000
C     1.509000000     4.406000000    -1.304000000
H     2.158000000     3.609000000    -1.659000000
C     1.919000000     5.404000000    -0.481000000
O     3.245000000     5.510000000    -0.138000000
C     1.034000000     6.326000000     0.051000000
H     1.332000000     7.107000000     0.745000000
C    -0.326000000     6.321000000    -0.364000000
O    -1.073000000     7.347000000     0.120000000
C    -2.255000000     7.020000000     0.673000000
C    -2.310000000     6.038000000     1.615000000
H    -1.381000000     5.634000000     2.010000000
C    -3.464000000     7.627000000     0.239000000
H    -3.365000000     8.546000000    -0.333000000
C    -4.686000000     7.193000000     0.764000000
H    -5.578000000     7.770000000     0.529000000
C    -4.654000000     6.129000000     1.627000000
H    -5.560000000     5.770000000     2.109000000
C    -3.486000000     5.501000000     2.059000000
O    -3.525000000     4.642000000     3.179000000
C    -3.827000000     3.323000000     3.119000000
C    -3.820000000     2.607000000     4.356000000
H    -3.805000000     3.193000000     5.271000000
C    -3.934000000     1.218000000     4.321000000
O    -3.824000000     0.610000000     5.546000000
C    -3.510000000    -0.728000000     5.698000000
C    -2.244000000    -1.212000000     5.567000000
H    -1.376000000    -0.608000000     5.316000000
C    -4.573000000    -1.587000000     6.088000000
H    -5.621000000    -1.299000000     6.109000000
C    -4.244000000    -2.897000000     6.430000000
H    -4.997000000    -3.573000000     6.828000000
C    -2.936000000    -3.365000000     6.393000000
H    -2.623000000    -4.343000000     6.747000000
C    -1.916000000    -2.530000000     5.947000000
O    -0.589000000    -2.966000000     5.855000000
C     0.058000000    -3.364000000     4.724000000
C     1.327000000    -3.958000000     4.944000000
H     1.682000000    -4.046000000     5.967000000
C     2.081000000    -4.493000000     3.914000000
O     3.392000000    -5.036000000     3.933000000
C     4.262000000    -4.915000000     2.871000000
C     4.867000000    -3.647000000     2.685000000
H     4.695000000    -2.727000000     3.238000000
C     4.457000000    -5.984000000     1.969000000
H     3.916000000    -6.892000000     2.224000000
C     5.420000000    -5.863000000     0.976000000
H     5.728000000    -6.771000000     0.464000000
C     6.222000000    -4.737000000     0.953000000
H     6.992000000    -4.720000000     0.186000000
C     5.930000000    -3.611000000     1.752000000
O     6.538000000    -2.440000000     1.472000000
C     6.151000000    -1.583000000     0.463000000
C     6.647000000    -0.254000000     0.426000000
H     7.344000000     0.190000000     1.132000000
C     6.130000000     0.672000000    -0.416000000
O     6.529000000     2.001000000    -0.248000000
C     5.854000000     3.035000000    -0.839000000
C     6.272000000     3.423000000    -2.138000000
H     7.104000000     2.870000000    -2.567000000
C     5.680000000     4.491000000    -2.726000000
H     6.142000000     5.007000000    -3.564000000
C     4.571000000     5.086000000    -2.138000000
H     4.026000000     5.863000000    -2.669000000
C     4.221000000     4.754000000    -0.767000000
C     4.815000000     3.616000000    -0.158000000
H     4.550000000     3.311000000     0.851000000
O     1.902000000     7.011000000     3.462000000
H     2.617000000     6.406000000     3.660000000
H     1.122000000     6.587000000     3.820000000
O     0.788000000    -0.260000000     6.646000000
H     1.094000000    -0.732000000     5.872000000
H     0.731000000    -0.929000000     7.328000000
O     5.399000000     6.836000000     1.683000000
H     5.033000000     6.087000000     2.153000000
H     6.255000000     6.534000000     1.380000000
O     3.396000000     4.718000000     3.002000000
H     3.233000000     3.787000000     3.155000000
H     2.951000000     4.906000000     2.175000000
O    -2.591000000     5.737000000     5.585000000
H    -2.835000000     6.589000000     5.223000000
H    -3.155000000     5.112000000     5.128000000
O     4.408000000     2.759000000     8.418000000
H     4.438000000     1.817000000     8.253000000
H     4.043000000     3.131000000     7.615000000
O    -0.092000000     5.748000000     4.717000000
H    -0.953000000     5.848000000     5.121000000
H     0.003000000     4.805000000     4.584000000
O     0.954000000     5.992000000     8.590000000
H     1.846000000     5.980000000     8.242000000
H     0.599000000     5.132000000     8.368000000
O     0.465000000     0.827000000     9.378000000
H     0.984000000     0.070000000     9.108000000
H    -0.314000000     0.450000000     9.786000000
O     5.636000000     5.259000000     6.352000000
H     6.144000000     5.550000000     5.595000000
H     4.837000000     4.889000000     5.976000000
O     7.127000000    -0.140000000     5.124000000
H     7.304000000    -0.489000000     4.250000000
H     6.632000000     0.663000000     4.966000000
O     7.261000000     2.587000000     6.661000000
H     6.428000000     2.238000000     6.345000000
H     7.213000000     3.525000000     6.476000000
O     5.135000000     2.007000000     4.955000000
H     4.224000000     1.994000000     4.660000000
H     5.558000000     2.660000000     4.398000000
O    -0.888000000     2.110000000     6.091000000
H    -0.431000000     1.314000000     6.361000000
H    -0.387000000     2.433000000     5.342000000
O    -0.079000000     8.611000000     5.062000000
H     0.325000000     7.862000000     4.623000000
H     0.009000000     8.418000000     5.995000000
O     4.519000000    -0.102000000     8.625000000
H     3.728000000    -0.417000000     8.187000000
H     4.668000000    -0.731000000     9.331000000
O     6.746000000     3.298000000     3.411000000
H     7.654000000     2.994000000     3.442000000
H     6.807000000     4.203000000     3.108000000
O     3.125000000     3.984000000     6.241000000
H     2.551000000     4.744000000     6.154000000
H     2.913000000     3.435000000     5.486000000
O     0.012000000     3.527000000     8.236000000
H     0.456000000     2.811000000     8.689000000
H    -0.158000000     3.186000000     7.358000000
