201
-1246.24935
C    -2.575000000    -0.246000000     4.235000000
H    -2.360000000    -1.281000000     3.979000000
C    -3.243000000     0.577000000     3.401000000
C    -3.356000000     1.944000000     3.746000000
H    -3.822000000     2.517000000     2.949000000
C    -3.651000000    -0.012000000     2.089000000
O    -4.231000000    -1.324000000     2.132000000
H    -2.888000000    -0.026000000     1.297000000
O    -4.760000000     0.796000000     1.624000000
C    -4.696000000     1.208000000     0.336000000
C    -4.075000000     2.411000000     0.068000000
H    -3.950000000     3.150000000     0.855000000
C    -3.673000000     2.800000000    -1.189000000
O    -2.882000000     3.910000000    -1.300000000
C    -4.003000000     1.965000000    -2.269000000
C    -3.502000000     2.334000000    -3.705000000
H    -4.080000000     1.747000000    -4.422000000
C    -2.102000000     1.827000000    -3.947000000
C    -1.954000000     0.559000000    -4.453000000
H    -2.852000000    -0.021000000    -4.649000000
H    -3.642000000     3.396000000    -3.917000000
C    -4.612000000     0.730000000    -1.988000000
H    -4.732000000     0.025000000    -2.806000000
C    -4.870000000     0.316000000    -0.705000000
C    -5.523000000    -1.058000000    -0.498000000
H    -6.107000000    -1.324000000    -1.381000000
H    -6.170000000    -0.939000000     0.373000000
C    -4.440000000    -2.090000000    -0.197000000
C    -3.823000000    -2.978000000    -1.125000000
H    -4.171000000    -2.934000000    -2.154000000
C    -3.847000000    -2.190000000     1.109000000
C    -2.773000000    -3.044000000     1.377000000
H    -2.460000000    -3.152000000     2.413000000
C    -2.253000000    -3.863000000     0.400000000
O    -1.131000000    -4.575000000     0.651000000
C     0.172000000    -4.112000000     0.168000000
C     1.241000000    -4.279000000     1.264000000
C     2.525000000    -4.480000000     0.882000000
H     2.863000000    -4.568000000    -0.147000000
C     0.811000000    -4.126000000     2.642000000
H    -0.214000000    -3.890000000     2.916000000
O     0.572000000    -4.745000000    -1.031000000
H     0.117000000    -3.064000000    -0.162000000
C    -2.791000000    -3.874000000    -0.872000000
C    -2.151000000    -4.657000000    -2.005000000
H    -2.942000000    -4.778000000    -2.748000000
H    -1.918000000    -5.663000000    -1.649000000
C    -0.993000000    -3.979000000    -2.703000000
C    -1.224000000    -3.177000000    -3.886000000
H    -2.223000000    -3.021000000    -4.286000000
C     0.278000000    -4.066000000    -2.219000000
C     1.284000000    -3.344000000    -2.863000000
H     2.319000000    -3.392000000    -2.535000000
C     1.116000000    -2.605000000    -3.987000000
O     2.194000000    -1.765000000    -4.319000000
C     2.269000000    -0.546000000    -3.601000000
C     3.802000000    -0.281000000    -3.379000000
C     4.683000000    -1.390000000    -3.093000000
H     4.424000000    -2.445000000    -3.090000000
C     4.208000000     1.003000000    -3.170000000
H     3.572000000     1.876000000    -3.296000000
O     1.802000000     0.464000000    -4.558000000
H     1.721000000    -0.567000000    -2.647000000
C    -0.192000000    -2.377000000    -4.396000000
C    -0.533000000    -1.275000000    -5.407000000
H    -1.447000000    -1.604000000    -5.906000000
H     0.210000000    -1.155000000    -6.198000000
C    -0.653000000     0.093000000    -4.697000000
C     0.457000000     0.939000000    -4.388000000
C     0.253000000     2.147000000    -3.821000000
H     1.113000000     2.661000000    -3.398000000
C    -0.997000000     2.658000000    -3.698000000
O    -1.142000000     3.810000000    -2.966000000
C    -1.511000000     3.642000000    -1.575000000
H    -1.351000000     2.594000000    -1.281000000
C    -0.648000000     4.532000000    -0.649000000
C    -1.186000000     5.206000000     0.439000000
H    -2.229000000     5.160000000     0.743000000
C     0.797000000     4.524000000    -0.773000000
H     1.220000000     3.844000000    -1.508000000
C     1.625000000     5.235000000     0.095000000
O     2.989000000     5.355000000    -0.128000000
C     1.082000000     5.809000000     1.231000000
H     1.697000000     6.151000000     2.059000000
C    -0.318000000     5.790000000     1.426000000
O    -0.828000000     6.488000000     2.517000000
C    -1.967000000     6.146000000     3.179000000
C    -2.016000000     4.945000000     3.863000000
H    -1.201000000     4.226000000     3.819000000
C    -3.003000000     7.067000000     3.222000000
H    -2.866000000     8.054000000     2.788000000
C    -4.132000000     6.835000000     4.010000000
H    -5.002000000     7.485000000     4.063000000
C    -4.257000000     5.571000000     4.641000000
H    -5.124000000     5.226000000     5.198000000
C    -3.199000000     4.688000000     4.614000000
O    -3.213000000     3.595000000     5.452000000
C    -2.861000000     2.367000000     4.982000000
C    -2.341000000     1.441000000     5.867000000
H    -1.932000000     1.774000000     6.817000000
C    -2.180000000     0.114000000     5.482000000
O    -1.537000000    -0.743000000     6.265000000
C    -1.290000000    -2.133000000     6.147000000
C    -0.145000000    -2.586000000     5.557000000
H     0.598000000    -1.880000000     5.197000000
C    -2.159000000    -3.085000000     6.631000000
H    -3.067000000    -2.711000000     7.096000000
C    -1.846000000    -4.473000000     6.543000000
H    -2.540000000    -5.192000000     6.971000000
C    -0.628000000    -4.917000000     5.996000000
H    -0.360000000    -5.956000000     5.819000000
C     0.224000000    -3.950000000     5.522000000
O     1.433000000    -4.245000000     4.906000000
C     1.785000000    -4.289000000     3.606000000
C     3.099000000    -4.586000000     3.155000000
H     3.835000000    -4.760000000     3.935000000
C     3.487000000    -4.623000000     1.826000000
O     4.870000000    -4.747000000     1.571000000
C     5.432000000    -4.585000000     0.314000000
C     5.717000000    -3.380000000    -0.211000000
H     5.372000000    -2.520000000     0.359000000
C     5.908000000    -5.748000000    -0.363000000
H     5.485000000    -6.699000000    -0.049000000
C     6.710000000    -5.646000000    -1.514000000
H     6.930000000    -6.531000000    -2.105000000
C     6.925000000    -4.410000000    -2.052000000
H     7.525000000    -4.289000000    -2.950000000
C     6.396000000    -3.269000000    -1.439000000
O     6.739000000    -2.061000000    -1.975000000
C     5.957000000    -1.104000000    -2.533000000
C     6.334000000     0.225000000    -2.409000000
H     7.281000000     0.401000000    -1.905000000
C     5.503000000     1.287000000    -2.736000000
O     6.013000000     2.592000000    -2.595000000
C     5.156000000     3.660000000    -2.509000000
C     5.044000000     4.567000000    -3.549000000
H     5.464000000     4.285000000    -4.511000000
C     4.099000000     5.575000000    -3.554000000
H     3.864000000     6.100000000    -4.476000000
C     3.399000000     5.828000000    -2.384000000
H     2.705000000     6.664000000    -2.366000000
C     3.598000000     5.020000000    -1.269000000
C     4.496000000     3.965000000    -1.298000000
H     4.731000000     3.458000000    -0.366000000
O     0.873000000     6.317000000     5.199000000
H     1.180000000     7.100000000     4.743000000
H     0.032000000     6.114000000     4.788000000
O     6.789000000     0.178000000     5.079000000
H     6.079000000     0.791000000     4.890000000
H     7.142000000    -0.052000000     4.219000000
O     3.881000000     5.332000000     3.256000000
H     3.539000000     4.461000000     3.454000000
H     3.609000000     5.497000000     2.353000000
O     5.257000000     5.969000000     5.635000000
H     4.912000000     5.775000000     4.763000000
H     5.995000000     6.558000000     5.474000000
O    -0.632000000     5.520000000     8.084000000
H     0.001000000     5.139000000     7.475000000
H    -0.881000000     4.794000000     8.655000000
O     3.304000000    -1.139000000     2.075000000
H     3.101000000    -1.503000000     2.937000000
H     2.459000000    -0.850000000     1.732000000
O     0.854000000     3.934000000     6.582000000
H     1.202000000     4.700000000     6.126000000
H     0.978000000     3.211000000     5.967000000
O     3.087000000    -2.032000000     6.823000000
H     3.742000000    -2.171000000     6.139000000
H     2.774000000    -1.139000000     6.676000000
O     7.465000000     2.415000000     6.874000000
H     6.871000000     3.165000000     6.848000000
H     7.171000000     1.851000000     6.159000000
O     6.685000000     5.081000000     1.126000000
H     6.149000000     5.867000000     1.024000000
H     6.055000000     4.360000000     1.130000000
O     5.071000000     3.536000000     7.943000000
H     5.191000000     4.486000000     7.976000000
H     5.809000000     3.185000000     8.441000000
O     5.483000000     0.229000000     1.187000000
H     4.678000000    -0.288000000     1.168000000
H     5.183000000     1.138000000     1.191000000
O     3.173000000     7.507000000     6.696000000
H     2.274000000     7.379000000     6.394000000
H     3.661000000     6.780000000     6.309000000
O     5.245000000     3.056000000     1.733000000
H     4.412000000     3.035000000     2.203000000
H     5.909000000     3.039000000     2.423000000
O     0.498000000    -0.990000000     8.553000000
H     0.372000000    -1.772000000     8.015000000
H     1.080000000    -0.434000000     8.036000000
O     1.949000000     0.401000000     6.607000000
H     2.138000000     1.028000000     7.306000000
H     1.709000000     0.945000000     5.857000000
O     2.585000000     2.154000000     8.619000000
H     2.084000000     2.870000000     8.230000000
H     3.470000000     2.505000000     8.715000000
O     4.948000000    -2.221000000     4.717000000
H     5.549000000    -2.282000000     3.975000000
H     5.317000000    -1.531000000     5.269000000
O     4.867000000     2.179000000     5.138000000
H     4.509000000     2.616000000     5.911000000
H     4.235000000     2.367000000     4.444000000
