201
-1232.11291
C    -3.111000000     1.471000000     2.982000000
H    -2.937000000     0.422000000     3.206000000
C    -3.815000000     1.817000000     1.774000000
C    -4.173000000     3.192000000     1.537000000
H    -4.835000000     3.485000000     0.726000000
C    -4.071000000     0.702000000     0.782000000
O    -4.604000000    -0.474000000     1.402000000
H    -3.137000000     0.447000000     0.258000000
O    -5.109000000     1.199000000    -0.163000000
C    -4.609000000     1.136000000    -1.417000000
C    -3.713000000     2.115000000    -1.845000000
H    -3.518000000     2.946000000    -1.172000000
C    -3.047000000     1.951000000    -3.053000000
O    -2.143000000     2.914000000    -3.358000000
C    -3.150000000     0.768000000    -3.747000000
C    -2.268000000     0.576000000    -4.971000000
H    -2.626000000    -0.128000000    -5.725000000
C    -0.850000000     0.204000000    -4.720000000
C    -0.510000000    -1.125000000    -4.792000000
H    -1.213000000    -1.897000000    -5.095000000
H    -2.329000000     1.562000000    -5.436000000
C    -3.893000000    -0.270000000    -3.223000000
H    -3.905000000    -1.266000000    -3.657000000
C    -4.655000000    -0.059000000    -2.093000000
C    -5.271000000    -1.308000000    -1.474000000
H    -5.726000000    -1.928000000    -2.250000000
H    -6.051000000    -1.065000000    -0.749000000
C    -4.316000000    -1.994000000    -0.552000000
C    -3.681000000    -3.116000000    -0.982000000
H    -3.762000000    -3.275000000    -2.055000000
C    -4.167000000    -1.682000000     0.791000000
C    -3.347000000    -2.451000000     1.659000000
H    -3.091000000    -2.183000000     2.681000000
C    -2.585000000    -3.490000000     1.096000000
O    -1.705000000    -4.117000000     1.932000000
C    -0.308000000    -3.921000000     1.665000000
C     0.422000000    -3.780000000     3.020000000
C     1.622000000    -4.412000000     3.145000000
H     1.999000000    -5.000000000     2.312000000
C    -0.102000000    -3.004000000     4.041000000
H    -1.142000000    -2.692000000     3.998000000
O     0.186000000    -4.964000000     0.857000000
H    -0.052000000    -3.001000000     1.118000000
C    -2.719000000    -3.785000000    -0.270000000
C    -2.062000000    -5.007000000    -0.898000000
H    -2.638000000    -5.359000000    -1.755000000
H    -1.940000000    -5.835000000    -0.196000000
C    -0.660000000    -4.553000000    -1.417000000
C    -0.459000000    -4.030000000    -2.699000000
H    -1.253000000    -3.791000000    -3.402000000
C     0.417000000    -4.775000000    -0.490000000
C     1.670000000    -4.270000000    -0.867000000
H     2.449000000    -4.312000000    -0.110000000
C     1.864000000    -3.748000000    -2.152000000
O     3.002000000    -3.150000000    -2.405000000
C     3.115000000    -1.749000000    -2.208000000
C     4.409000000    -1.470000000    -1.460000000
C     5.145000000    -2.513000000    -0.807000000
H     4.813000000    -3.548000000    -0.828000000
C     4.783000000    -0.153000000    -1.316000000
H     4.164000000     0.625000000    -1.756000000
O     3.022000000    -0.948000000    -3.504000000
H     2.271000000    -1.529000000    -1.537000000
C     0.856000000    -3.640000000    -3.090000000
C     1.112000000    -3.081000000    -4.429000000
H     0.443000000    -3.588000000    -5.128000000
H     2.142000000    -3.145000000    -4.784000000
C     0.754000000    -1.593000000    -4.402000000
C     1.733000000    -0.659000000    -3.994000000
C     1.455000000     0.727000000    -4.014000000
H     2.171000000     1.497000000    -3.737000000
C     0.183000000     1.152000000    -4.361000000
O    -0.018000000     2.472000000    -4.181000000
C    -0.717000000     2.806000000    -3.049000000
H    -0.557000000     1.994000000    -2.323000000
C    -0.179000000     3.931000000    -2.284000000
C    -0.873000000     5.122000000    -2.101000000
H    -1.886000000     5.320000000    -2.442000000
C     1.187000000     3.909000000    -1.868000000
H     1.843000000     3.055000000    -2.015000000
C     1.841000000     5.027000000    -1.341000000
O     3.107000000     4.993000000    -0.824000000
C     1.093000000     6.184000000    -1.095000000
H     1.573000000     7.018000000    -0.590000000
C    -0.289000000     6.158000000    -1.324000000
O    -1.069000000     7.200000000    -1.003000000
C    -2.294000000     7.094000000    -0.402000000
C    -2.632000000     6.164000000     0.624000000
H    -1.822000000     5.554000000     1.017000000
C    -3.333000000     7.972000000    -0.848000000
H    -2.926000000     8.621000000    -1.618000000
C    -4.646000000     8.022000000    -0.284000000
H    -5.351000000     8.778000000    -0.617000000
C    -4.925000000     7.125000000     0.750000000
H    -5.942000000     6.991000000     1.110000000
C    -3.880000000     6.198000000     1.221000000
O    -4.145000000     5.454000000     2.346000000
C    -3.831000000     4.145000000     2.479000000
C    -3.161000000     3.803000000     3.700000000
H    -2.870000000     4.636000000     4.336000000
C    -2.859000000     2.441000000     3.992000000
O    -2.428000000     2.195000000     5.311000000
C    -2.330000000     0.930000000     5.830000000
C    -1.074000000     0.349000000     5.798000000
H    -0.268000000     0.936000000     5.366000000
C    -3.433000000     0.142000000     6.060000000
H    -4.438000000     0.550000000     5.993000000
C    -3.302000000    -1.212000000     6.333000000
H    -4.099000000    -1.816000000     6.758000000
C    -2.028000000    -1.813000000     6.422000000
H    -1.836000000    -2.829000000     6.756000000
C    -0.932000000    -1.022000000     6.062000000
O     0.315000000    -1.657000000     6.053000000
C     0.739000000    -2.528000000     5.065000000
C     1.954000000    -3.179000000     5.160000000
H     2.580000000    -3.003000000     6.032000000
C     2.391000000    -4.033000000     4.232000000
O     3.687000000    -4.375000000     4.277000000
C     4.509000000    -4.669000000     3.210000000
C     5.254000000    -3.678000000     2.553000000
H     5.090000000    -2.630000000     2.789000000
C     4.500000000    -6.009000000     2.805000000
H     3.880000000    -6.738000000     3.319000000
C     5.254000000    -6.408000000     1.688000000
H     5.196000000    -7.440000000     1.350000000
C     6.096000000    -5.471000000     1.091000000
H     6.750000000    -5.817000000     0.295000000
C     6.034000000    -4.101000000     1.482000000
O     6.821000000    -3.158000000     0.832000000
C     6.247000000    -2.168000000     0.031000000
C     6.600000000    -0.823000000     0.097000000
H     7.396000000    -0.542000000     0.782000000
C     5.807000000     0.171000000    -0.437000000
O     6.179000000     1.481000000    -0.254000000
C     5.684000000     2.435000000    -1.070000000
C     6.180000000     2.711000000    -2.298000000
H     6.964000000     2.064000000    -2.683000000
C     5.551000000     3.622000000    -3.138000000
H     5.980000000     3.711000000    -4.133000000
C     4.515000000     4.440000000    -2.662000000
H     3.988000000     5.172000000    -3.268000000
C     4.083000000     4.150000000    -1.350000000
C     4.551000000     3.056000000    -0.617000000
H     3.994000000     2.738000000     0.261000000
O    -0.114000000     7.734000000     3.625000000
H     0.743000000     8.057000000     3.903000000
H     0.073000000     7.185000000     2.864000000
O     4.717000000     4.335000000     7.840000000
H     4.863000000     4.017000000     6.949000000
H     4.347000000     3.585000000     8.304000000
O     7.062000000     4.499000000     2.196000000
H     7.459000000     5.364000000     2.303000000
H     6.119000000     4.665000000     2.207000000
O     4.604000000     5.122000000     3.208000000
H     4.087000000     4.320000000     3.288000000
H     4.148000000     5.756000000     3.761000000
O     1.192000000     5.704000000     2.081000000
H     1.213000000     5.208000000     1.262000000
H     1.053000000     5.041000000     2.758000000
O     1.152000000     8.252000000     6.932000000
H     1.193000000     7.302000000     7.041000000
H     1.920000000     8.466000000     6.402000000
O    -1.886000000     2.738000000     8.351000000
H    -1.704000000     3.530000000     8.857000000
H    -1.137000000     2.167000000     8.524000000
O     7.105000000    -0.036000000     4.663000000
H     6.175000000     0.145000000     4.796000000
H     7.190000000    -0.177000000     3.720000000
O     4.535000000     3.327000000     5.542000000
H     3.817000000     2.896000000     5.079000000
H     4.977000000     3.845000000     4.870000000
O    -1.349000000     6.388000000     5.813000000
H    -0.760000000     7.003000000     5.375000000
H    -0.791000000     5.645000000     6.043000000
O     2.018000000     2.044000000     7.219000000
H     2.018000000     2.931000000     6.858000000
H     1.412000000     2.088000000     7.959000000
O     2.808000000    -0.413000000     6.529000000
H     1.918000000    -0.751000000     6.627000000
H     2.765000000     0.479000000     6.872000000
O     0.082000000     3.848000000     6.030000000
H     0.416000000     3.703000000     5.144000000
H    -0.680000000     3.272000000     6.096000000
O     2.714000000     8.133000000     2.502000000
H     2.371000000     7.243000000     2.583000000
H     2.680000000     8.319000000     1.564000000
O     3.951000000     2.017000000     9.133000000
H     3.749000000     1.665000000    10.000000000
H     3.215000000     1.744000000     8.586000000
O     4.430000000     0.295000000     4.321000000
H     3.888000000    -0.227000000     4.913000000
H     3.806000000     0.848000000     3.851000000
O     5.441000000     6.828000000     0.813000000
H     5.195000000     6.466000000     1.664000000
H     4.617000000     7.136000000     0.436000000
O     2.520000000     5.992000000     4.880000000
H     2.528000000     5.777000000     5.813000000
H     1.975000000     5.314000000     4.482000000
O     1.997000000     5.542000000     7.594000000
H     1.270000000     5.021000000     7.936000000
H     2.772000000     5.184000000     8.026000000
