201
-1259.53277
C    -4.365000000     2.901000000    -0.881000000
H    -4.143000000     2.599000000    -1.902000000
C    -3.359000000     3.605000000    -0.191000000
C    -3.593000000     3.929000000     1.162000000
H    -2.718000000     4.340000000     1.660000000
C    -2.039000000     3.719000000    -0.895000000
O    -2.078000000     3.782000000    -2.366000000
H    -1.392000000     2.857000000    -0.673000000
O    -1.386000000     4.937000000    -0.451000000
C    -0.031000000     4.777000000    -0.161000000
C     0.321000000     4.636000000     1.189000000
H    -0.466000000     4.738000000     1.933000000
C     1.614000000     4.223000000     1.414000000
O     1.891000000     3.812000000     2.730000000
C     2.633000000     4.135000000     0.427000000
C     4.018000000     3.736000000     0.764000000
H     4.767000000     4.260000000     0.166000000
C     4.189000000     2.218000000     0.742000000
C     4.548000000     1.616000000    -0.509000000
H     4.657000000     2.213000000    -1.410000000
H     4.365000000     4.029000000     1.757000000
C     2.280000000     4.316000000    -0.906000000
H     2.991000000     4.160000000    -1.712000000
C     0.936000000     4.716000000    -1.237000000
C     0.583000000     4.929000000    -2.682000000
H     1.466000000     5.315000000    -3.194000000
H    -0.214000000     5.661000000    -2.827000000
C     0.178000000     3.623000000    -3.229000000
C     1.116000000     2.798000000    -3.947000000
H     2.156000000     3.105000000    -4.027000000
C    -1.140000000     3.138000000    -3.056000000
C    -1.520000000     1.836000000    -3.488000000
H    -2.476000000     1.422000000    -3.178000000
C    -0.644000000     1.100000000    -4.197000000
O    -1.145000000    -0.142000000    -4.451000000
C    -0.601000000    -1.319000000    -3.814000000
C    -1.680000000    -2.402000000    -3.472000000
C    -1.384000000    -3.743000000    -3.250000000
H    -0.385000000    -4.143000000    -3.399000000
C    -2.969000000    -1.926000000    -3.298000000
H    -3.253000000    -0.893000000    -3.478000000
O     0.428000000    -1.944000000    -4.634000000
H    -0.215000000    -0.978000000    -2.842000000
C     0.632000000     1.517000000    -4.441000000
C     1.532000000     0.694000000    -5.344000000
H     2.292000000     1.332000000    -5.801000000
H     1.067000000     0.192000000    -6.195000000
C     2.197000000    -0.343000000    -4.412000000
C     3.347000000     0.029000000    -3.689000000
H     3.777000000     1.016000000    -3.840000000
C     1.709000000    -1.642000000    -4.270000000
C     2.267000000    -2.552000000    -3.338000000
H     1.745000000    -3.487000000    -3.151000000
C     3.357000000    -2.171000000    -2.574000000
O     3.760000000    -2.989000000    -1.590000000
C     3.233000000    -2.611000000    -0.322000000
C     2.822000000    -3.818000000     0.402000000
C     2.556000000    -5.036000000    -0.217000000
H     2.719000000    -5.197000000    -1.279000000
C     2.416000000    -3.704000000     1.736000000
H     2.496000000    -2.773000000     2.292000000
O     4.322000000    -1.935000000     0.329000000
H     2.378000000    -1.936000000    -0.478000000
C     3.880000000    -0.825000000    -2.702000000
C     5.060000000    -0.384000000    -1.911000000
H     5.555000000     0.374000000    -2.520000000
H     5.722000000    -1.244000000    -1.785000000
C     4.641000000     0.236000000    -0.613000000
C     4.350000000    -0.546000000     0.489000000
C     3.981000000     0.000000000     1.736000000
H     3.756000000    -0.562000000     2.639000000
C     3.891000000     1.378000000     1.813000000
O     3.388000000     1.925000000     2.948000000
C     2.001000000     2.360000000     2.997000000
H     1.521000000     1.686000000     2.273000000
C     1.305000000     1.932000000     4.258000000
C     0.228000000     2.671000000     4.706000000
H    -0.050000000     3.653000000     4.331000000
C     1.583000000     0.739000000     4.882000000
H     2.361000000     0.112000000     4.453000000
C     0.963000000     0.363000000     6.062000000
O     1.251000000    -0.881000000     6.724000000
C    -0.076000000     1.161000000     6.478000000
H    -0.592000000     0.865000000     7.387000000
C    -0.524000000     2.276000000     5.775000000
O    -1.649000000     2.915000000     6.346000000
C    -2.365000000     3.839000000     5.649000000
C    -3.324000000     3.492000000     4.674000000
H    -3.517000000     2.445000000     4.456000000
C    -2.120000000     5.228000000     5.889000000
H    -1.340000000     5.553000000     6.573000000
C    -2.830000000     6.195000000     5.180000000
H    -2.696000000     7.265000000     5.317000000
C    -3.851000000     5.789000000     4.218000000
H    -4.444000000     6.517000000     3.671000000
C    -4.085000000     4.457000000     3.973000000
O    -5.032000000     4.131000000     3.032000000
C    -4.857000000     3.760000000     1.720000000
C    -5.839000000     3.075000000     1.026000000
H    -6.776000000     2.728000000     1.455000000
C    -5.557000000     2.595000000    -0.308000000
O    -6.489000000     1.870000000    -0.950000000
C    -6.252000000     1.205000000    -2.062000000
C    -5.733000000    -0.093000000    -1.950000000
H    -5.378000000    -0.593000000    -1.052000000
C    -6.569000000     1.710000000    -3.326000000
H    -6.962000000     2.723000000    -3.314000000
C    -6.499000000     0.908000000    -4.454000000
H    -6.886000000     1.309000000    -5.387000000
C    -6.006000000    -0.389000000    -4.305000000
H    -5.982000000    -1.034000000    -5.180000000
C    -5.606000000    -0.876000000    -3.050000000
O    -5.316000000    -2.223000000    -2.889000000
C    -4.060000000    -2.740000000    -2.977000000
C    -3.754000000    -4.048000000    -2.782000000
H    -4.524000000    -4.751000000    -2.476000000
C    -2.433000000    -4.589000000    -2.921000000
O    -2.186000000    -5.907000000    -2.679000000
C    -0.900000000    -6.490000000    -2.662000000
C    -0.147000000    -6.392000000    -1.473000000
H    -0.438000000    -5.762000000    -0.636000000
C    -0.436000000    -7.333000000    -3.705000000
H    -1.004000000    -7.393000000    -4.630000000
C     0.692000000    -8.089000000    -3.494000000
H     1.051000000    -8.725000000    -4.299000000
C     1.366000000    -7.998000000    -2.274000000
H     2.247000000    -8.629000000    -2.195000000
C     0.988000000    -7.202000000    -1.267000000
O     1.721000000    -7.288000000    -0.085000000
C     2.142000000    -6.172000000     0.539000000
C     1.835000000    -6.038000000     1.853000000
H     1.458000000    -6.853000000     2.465000000
C     2.001000000    -4.854000000     2.482000000
O     1.587000000    -4.751000000     3.826000000
C     2.139000000    -3.887000000     4.696000000
C     3.524000000    -4.036000000     4.979000000
H     4.163000000    -4.811000000     4.564000000
C     4.129000000    -3.082000000     5.754000000
H     5.083000000    -3.334000000     6.208000000
C     3.354000000    -2.067000000     6.399000000
H     3.808000000    -1.467000000     7.183000000
C     1.991000000    -1.894000000     6.060000000
C     1.396000000    -2.789000000     5.205000000
H     0.353000000    -2.728000000     4.906000000
O    -4.083000000    -3.973000000     6.856000000
H    -4.196000000    -3.349000000     6.140000000
H    -3.278000000    -3.693000000     7.293000000
O    -9.218000000     2.721000000     0.836000000
H    -8.403000000     2.727000000     0.334000000
H    -9.906000000     2.645000000     0.176000000
O    -4.917000000    -2.138000000     4.691000000
H    -5.051000000    -1.943000000     3.763000000
H    -5.604000000    -1.647000000     5.141000000
O    -1.769000000    -2.172000000     3.312000000
H    -1.825000000    -1.693000000     2.485000000
H    -1.903000000    -1.504000000     3.984000000
O    -8.975000000    -2.651000000     3.810000000
H    -9.687000000    -2.896000000     3.219000000
H    -8.436000000    -2.047000000     3.299000000
O    -8.162000000    -2.136000000    -2.853000000
H    -8.583000000    -2.947000000    -2.567000000
H    -7.457000000    -1.996000000    -2.221000000
O    -2.392000000    -4.724000000     2.285000000
H    -3.265000000    -4.593000000     1.914000000
H    -2.124000000    -3.853000000     2.580000000
O    -2.381000000    -0.215000000     5.003000000
H    -3.307000000    -0.450000000     4.947000000
H    -2.322000000     0.344000000     5.777000000
O    -6.295000000    -5.364000000    -0.765000000
H    -6.678000000    -6.221000000    -0.579000000
H    -5.736000000    -5.183000000    -0.011000000
O    -5.273000000     1.714000000     7.200000000
H    -5.132000000     2.661000000     7.202000000
H    -5.748000000     1.544000000     6.387000000
O    -4.982000000    -4.509000000     1.595000000
H    -5.335000000    -5.016000000     2.327000000
H    -5.228000000    -3.605000000     1.789000000
O   -10.778000000     0.097000000     2.136000000
H    -9.996000000     0.643000000     2.056000000
H   -11.499000000     0.722000000     2.218000000
O    -7.145000000    -0.881000000     6.144000000
H    -7.203000000    -0.063000000     5.651000000
H    -8.056000000    -1.151000000     6.268000000
O    -6.024000000    -5.511000000     4.076000000
H    -6.588000000    -4.787000000     4.346000000
H    -6.631000000    -6.199000000     3.804000000
O    -1.947000000    -2.551000000     6.826000000
H    -1.855000000    -2.383000000     5.888000000
H    -2.401000000    -1.779000000     7.164000000
O    -9.997000000    -2.457000000     1.032000000
H    -9.083000000    -2.481000000     0.748000000
H   -10.190000000    -1.526000000     1.142000000
O    -6.530000000     1.380000000     4.608000000
H    -6.140000000     1.018000000     3.812000000
H    -7.114000000     2.072000000     4.295000000
O    -7.262000000    -2.850000000     0.018000000
H    -6.465000000    -2.376000000     0.257000000
H    -6.950000000    -3.697000000    -0.302000000
O    -7.958000000    -0.708000000     2.226000000
H    -7.192000000    -0.227000000     2.541000000
H    -7.668000000    -1.112000000     1.408000000
