201
-1243.35787
C    -4.621000000     2.496000000    -1.091000000
H    -4.476000000     2.025000000    -2.061000000
C    -3.665000000     3.309000000    -0.536000000
C    -3.789000000     3.780000000     0.826000000
H    -3.125000000     4.501000000     1.295000000
C    -2.319000000     3.511000000    -1.190000000
O    -2.453000000     3.366000000    -2.637000000
H    -1.650000000     2.709000000    -0.844000000
O    -1.783000000     4.826000000    -0.799000000
C    -0.399000000     4.793000000    -0.593000000
C     0.039000000     4.768000000     0.729000000
H    -0.683000000     4.879000000     1.534000000
C     1.421000000     4.392000000     1.011000000
O     1.765000000     4.154000000     2.320000000
C     2.326000000     4.244000000     0.016000000
C     3.836000000     4.061000000     0.365000000
H     4.459000000     4.555000000    -0.384000000
C     4.175000000     2.570000000     0.538000000
C     4.601000000     1.804000000    -0.556000000
H     4.724000000     2.370000000    -1.475000000
H     4.002000000     4.633000000     1.280000000
C     1.854000000     4.401000000    -1.336000000
H     2.580000000     4.379000000    -2.146000000
C     0.462000000     4.609000000    -1.646000000
C     0.054000000     4.606000000    -3.070000000
H     0.901000000     5.051000000    -3.596000000
H    -0.778000000     5.299000000    -3.214000000
C    -0.234000000     3.204000000    -3.561000000
C     0.778000000     2.489000000    -4.175000000
H     1.789000000     2.882000000    -4.255000000
C    -1.471000000     2.633000000    -3.291000000
C    -1.730000000     1.370000000    -3.760000000
H    -2.659000000     0.906000000    -3.439000000
C    -0.772000000     0.720000000    -4.567000000
O    -1.073000000    -0.591000000    -4.888000000
C    -0.661000000    -1.636000000    -3.972000000
C    -1.636000000    -2.711000000    -3.573000000
C    -1.223000000    -4.064000000    -3.495000000
H    -0.184000000    -4.335000000    -3.665000000
C    -2.925000000    -2.239000000    -3.314000000
H    -3.209000000    -1.200000000    -3.459000000
O     0.574000000    -2.142000000    -4.502000000
H    -0.329000000    -1.213000000    -3.012000000
C     0.510000000     1.211000000    -4.602000000
C     1.689000000     0.428000000    -5.183000000
H     2.446000000     1.074000000    -5.631000000
H     1.213000000    -0.122000000    -5.998000000
C     2.280000000    -0.511000000    -4.146000000
C     3.460000000    -0.058000000    -3.526000000
H     3.845000000     0.892000000    -3.887000000
C     1.728000000    -1.750000000    -3.930000000
C     2.262000000    -2.497000000    -2.893000000
H     1.915000000    -3.517000000    -2.751000000
C     3.308000000    -2.003000000    -2.141000000
O     3.818000000    -2.737000000    -1.161000000
C     3.497000000    -2.351000000     0.187000000
C     2.990000000    -3.485000000     1.014000000
C     2.431000000    -4.584000000     0.422000000
H     2.362000000    -4.558000000    -0.663000000
C     3.136000000    -3.455000000     2.443000000
H     3.652000000    -2.631000000     2.929000000
O     4.643000000    -1.647000000     0.758000000
H     2.586000000    -1.758000000     0.018000000
C     3.948000000    -0.723000000    -2.458000000
C     5.200000000    -0.252000000    -1.793000000
H     5.689000000     0.483000000    -2.436000000
H     5.861000000    -1.099000000    -1.596000000
C     4.847000000     0.483000000    -0.461000000
C     4.547000000    -0.236000000     0.657000000
C     4.168000000     0.487000000     1.791000000
H     3.923000000    -0.123000000     2.657000000
C     3.975000000     1.915000000     1.730000000
O     3.352000000     2.513000000     2.828000000
C     1.950000000     2.734000000     2.657000000
H     1.484000000     2.140000000     1.857000000
C     1.144000000     2.319000000     3.916000000
C     0.158000000     3.050000000     4.404000000
H    -0.123000000     4.026000000     4.018000000
C     1.461000000     1.163000000     4.497000000
H     2.294000000     0.635000000     4.039000000
C     0.750000000     0.663000000     5.588000000
O     1.021000000    -0.576000000     6.161000000
C    -0.381000000     1.348000000     6.038000000
H    -1.020000000     0.919000000     6.805000000
C    -0.556000000     2.633000000     5.497000000
O    -1.522000000     3.461000000     6.022000000
C    -2.363000000     4.220000000     5.224000000
C    -3.339000000     3.602000000     4.412000000
H    -3.373000000     2.517000000     4.460000000
C    -2.349000000     5.603000000     5.269000000
H    -1.766000000     6.102000000     6.038000000
C    -3.223000000     6.387000000     4.506000000
H    -3.241000000     7.473000000     4.518000000
C    -4.158000000     5.781000000     3.749000000
H    -4.869000000     6.349000000     3.154000000
C    -4.257000000     4.365000000     3.695000000
O    -5.171000000     3.742000000     2.859000000
C    -5.006000000     3.504000000     1.516000000
C    -5.939000000     2.670000000     0.867000000
H    -6.831000000     2.353000000     1.400000000
C    -5.744000000     2.118000000    -0.367000000
O    -6.745000000     1.269000000    -0.900000000
C    -6.545000000     0.483000000    -1.963000000
C    -6.032000000    -0.826000000    -1.706000000
H    -5.779000000    -1.214000000    -0.723000000
C    -6.895000000     0.856000000    -3.265000000
H    -7.366000000     1.802000000    -3.519000000
C    -6.591000000    -0.014000000    -4.322000000
H    -7.023000000     0.237000000    -5.287000000
C    -6.009000000    -1.237000000    -4.135000000
H    -5.758000000    -1.930000000    -4.934000000
C    -5.713000000    -1.611000000    -2.826000000
O    -5.119000000    -2.881000000    -2.677000000
C    -3.851000000    -3.235000000    -2.948000000
C    -3.446000000    -4.597000000    -2.837000000
H    -4.155000000    -5.318000000    -2.439000000
C    -2.116000000    -5.006000000    -3.038000000
O    -1.832000000    -6.407000000    -3.021000000
C    -0.653000000    -6.956000000    -2.407000000
C    -0.165000000    -6.533000000    -1.169000000
H    -0.806000000    -5.868000000    -0.596000000
C     0.038000000    -7.867000000    -3.142000000
H    -0.418000000    -8.275000000    -4.040000000
C     1.257000000    -8.350000000    -2.632000000
H     1.766000000    -9.106000000    -3.224000000
C     1.714000000    -7.974000000    -1.345000000
H     2.661000000    -8.363000000    -0.980000000
C     0.998000000    -7.082000000    -0.612000000
O     1.462000000    -6.795000000     0.739000000
C     1.972000000    -5.597000000     1.264000000
C     2.103000000    -5.615000000     2.623000000
H     1.754000000    -6.410000000     3.277000000
C     2.808000000    -4.567000000     3.197000000
O     2.834000000    -4.650000000     4.569000000
C     3.075000000    -3.456000000     5.188000000
C     4.357000000    -3.092000000     5.630000000
H     5.213000000    -3.760000000     5.593000000
C     4.519000000    -1.787000000     6.198000000
H     5.489000000    -1.504000000     6.598000000
C     3.437000000    -0.894000000     6.261000000
H     3.633000000     0.089000000     6.682000000
C     2.164000000    -1.315000000     5.837000000
C     1.967000000    -2.581000000     5.320000000
H     1.024000000    -2.931000000     4.908000000
O    -1.402000000    -6.387000000     2.150000000
H    -0.718000000    -5.834000000     1.774000000
H    -2.191000000    -5.847000000     2.120000000
O    -3.783000000    -4.214000000     4.886000000
H    -3.413000000    -4.085000000     4.013000000
H    -4.111000000    -3.351000000     5.137000000
O    -9.278000000     0.922000000     2.784000000
H    -9.807000000     1.188000000     2.031000000
H    -8.734000000     1.686000000     2.976000000
O    -5.770000000    -2.256000000     5.282000000
H    -5.706000000    -2.013000000     4.359000000
H    -6.534000000    -1.777000000     5.603000000
O    -0.471000000    -1.625000000     3.191000000
H    -0.090000000    -0.896000000     2.702000000
H    -1.320000000    -1.296000000     3.488000000
O    -6.319000000    -3.891000000     7.394000000
H    -5.983000000    -3.399000000     6.645000000
H    -5.597000000    -4.466000000     7.647000000
O    -8.485000000    -2.864000000    -2.450000000
H    -8.427000000    -3.780000000    -2.723000000
H    -7.687000000    -2.715000000    -1.943000000
O    -0.415000000    -3.680000000     1.276000000
H    -1.320000000    -3.519000000     1.009000000
H    -0.305000000    -3.162000000     2.073000000
O    -2.888000000    -0.836000000     4.298000000
H    -3.616000000    -1.130000000     3.751000000
H    -3.286000000    -0.652000000     5.149000000
O    -4.417000000    -6.913000000     0.277000000
H    -5.243000000    -7.381000000     0.393000000
H    -3.803000000    -7.581000000    -0.027000000
O    -5.873000000     2.314000000     6.434000000
H    -6.151000000     3.212000000     6.256000000
H    -6.167000000     1.816000000     5.670000000
O    -5.786000000    -6.119000000     3.817000000
H    -5.232000000    -5.344000000     3.911000000
H    -5.404000000    -6.599000000     3.082000000
O    -3.679000000    -4.433000000     1.989000000
H    -3.957000000    -5.039000000     1.302000000
H    -4.138000000    -3.617000000     1.789000000
O   -10.628000000    -2.175000000     3.390000000
H    -9.678000000    -2.243000000     3.492000000
H   -10.749000000    -1.782000000     2.526000000
O    -8.183000000    -3.856000000     3.743000000
H    -7.835000000    -3.108000000     3.258000000
H    -7.414000000    -4.388000000     3.948000000
O    -8.828000000    -5.725000000     0.680000000
H    -8.486000000    -4.948000000     1.124000000
H    -9.421000000    -6.123000000     1.316000000
O    -5.824000000     1.203000000     4.030000000
H    -5.314000000     0.561000000     3.537000000
H    -6.004000000     1.901000000     3.400000000
O    -7.300000000    -3.236000000     0.456000000
H    -6.345000000    -3.256000000     0.389000000
H    -7.477000000    -2.624000000     1.170000000
O    -7.707000000    -1.446000000     2.470000000
H    -6.776000000    -1.228000000     2.422000000
H    -8.147000000    -0.599000000     2.539000000
