201
-1246.61503
C    -4.560000000     2.587000000    -1.639000000
H    -4.292000000     2.190000000    -2.615000000
C    -3.611000000     3.397000000    -0.932000000
C    -3.981000000     3.852000000     0.376000000
H    -3.299000000     4.426000000     0.997000000
C    -2.206000000     3.707000000    -1.530000000
O    -2.209000000     3.553000000    -3.028000000
H    -1.660000000     2.845000000    -1.119000000
O    -1.719000000     4.927000000    -1.023000000
C    -0.479000000     4.697000000    -0.482000000
C    -0.284000000     4.639000000     0.897000000
H    -1.155000000     4.732000000     1.540000000
C     0.976000000     4.444000000     1.470000000
O     1.086000000     4.030000000     2.805000000
C     2.108000000     4.291000000     0.555000000
C     3.539000000     4.176000000     1.073000000
H     4.255000000     4.734000000     0.468000000
C     3.842000000     2.660000000     1.209000000
C     4.414000000     2.036000000     0.099000000
H     4.609000000     2.619000000    -0.797000000
H     3.581000000     4.684000000     2.039000000
C     1.922000000     4.367000000    -0.817000000
H     2.767000000     4.320000000    -1.500000000
C     0.611000000     4.524000000    -1.354000000
C     0.407000000     4.741000000    -2.839000000
H     1.312000000     5.210000000    -3.232000000
H    -0.408000000     5.453000000    -2.987000000
C     0.103000000     3.424000000    -3.544000000
C     1.135000000     2.621000000    -4.073000000
H     2.122000000     3.065000000    -3.970000000
C    -1.212000000     2.895000000    -3.545000000
C    -1.455000000     1.568000000    -3.928000000
H    -2.461000000     1.167000000    -3.831000000
C    -0.381000000     0.762000000    -4.450000000
O    -0.605000000    -0.588000000    -4.604000000
C    -0.108000000    -1.434000000    -3.598000000
C    -1.162000000    -2.475000000    -3.109000000
C    -0.743000000    -3.808000000    -3.054000000
H     0.237000000    -4.186000000    -3.334000000
C    -2.477000000    -2.122000000    -2.751000000
H    -2.760000000    -1.074000000    -2.688000000
O     1.014000000    -2.043000000    -4.205000000
H     0.304000000    -0.937000000    -2.708000000
C     0.902000000     1.343000000    -4.642000000
C     2.105000000     0.625000000    -5.128000000
H     2.787000000     1.355000000    -5.569000000
H     1.736000000    -0.007000000    -5.939000000
C     2.744000000    -0.264000000    -4.038000000
C     3.722000000     0.274000000    -3.215000000
H     3.909000000     1.333000000    -3.370000000
C     2.247000000    -1.558000000    -3.761000000
C     2.895000000    -2.324000000    -2.848000000
H     2.612000000    -3.348000000    -2.617000000
C     3.933000000    -1.758000000    -2.090000000
O     4.391000000    -2.531000000    -1.040000000
C     3.785000000    -2.176000000     0.206000000
C     3.350000000    -3.446000000     0.859000000
C     3.022000000    -4.557000000     0.120000000
H     3.217000000    -4.637000000    -0.946000000
C     3.166000000    -3.443000000     2.258000000
H     3.346000000    -2.491000000     2.752000000
O     4.665000000    -1.463000000     1.026000000
H     2.842000000    -1.680000000    -0.069000000
C     4.405000000    -0.477000000    -2.237000000
C     5.464000000     0.149000000    -1.293000000
H     6.107000000     0.899000000    -1.758000000
H     6.268000000    -0.525000000    -0.991000000
C     4.743000000     0.705000000    -0.039000000
C     4.501000000    -0.096000000     1.065000000
C     3.960000000     0.499000000     2.210000000
H     3.651000000    -0.241000000     2.944000000
C     3.600000000     1.835000000     2.334000000
O     2.740000000     2.295000000     3.287000000
C     1.362000000     2.609000000     3.040000000
H     1.018000000     2.038000000     2.165000000
C     0.506000000     2.107000000     4.230000000
C    -0.740000000     2.668000000     4.545000000
H    -1.081000000     3.495000000     3.928000000
C     0.786000000     0.838000000     4.781000000
H     1.742000000     0.370000000     4.561000000
C    -0.080000000     0.233000000     5.694000000
O     0.246000000    -1.003000000     6.284000000
C    -1.351000000     0.787000000     5.964000000
H    -2.046000000     0.237000000     6.594000000
C    -1.686000000     2.012000000     5.362000000
O    -2.922000000     2.598000000     5.556000000
C    -3.419000000     3.709000000     4.839000000
C    -4.331000000     3.437000000     3.843000000
H    -4.735000000     2.440000000     3.680000000
C    -2.934000000     4.938000000     5.129000000
H    -2.209000000     5.065000000     5.928000000
C    -3.431000000     6.046000000     4.366000000
H    -3.246000000     7.063000000     4.703000000
C    -4.345000000     5.798000000     3.326000000
H    -4.716000000     6.632000000     2.735000000
C    -4.775000000     4.474000000     3.068000000
O    -5.699000000     4.273000000     2.054000000
C    -5.287000000     3.642000000     0.869000000
C    -6.165000000     2.852000000     0.123000000
H    -7.191000000     2.712000000     0.455000000
C    -5.833000000     2.339000000    -1.084000000
O    -6.763000000     1.611000000    -1.754000000
C    -6.442000000     0.500000000    -2.540000000
C    -5.600000000    -0.558000000    -2.102000000
H    -5.168000000    -0.557000000    -1.104000000
C    -6.964000000     0.308000000    -3.806000000
H    -7.637000000     1.085000000    -4.160000000
C    -6.581000000    -0.717000000    -4.566000000
H    -7.037000000    -0.806000000    -5.549000000
C    -5.772000000    -1.754000000    -4.109000000
H    -5.538000000    -2.659000000    -4.663000000
C    -5.309000000    -1.672000000    -2.838000000
O    -4.694000000    -2.791000000    -2.181000000
C    -3.361000000    -3.121000000    -2.428000000
C    -2.973000000    -4.429000000    -2.337000000
H    -3.754000000    -5.153000000    -2.121000000
C    -1.622000000    -4.820000000    -2.640000000
O    -1.367000000    -6.164000000    -2.826000000
C    -0.172000000    -6.692000000    -2.562000000
C     0.580000000    -6.315000000    -1.453000000
H     0.301000000    -5.520000000    -0.765000000
C     0.327000000    -7.655000000    -3.411000000
H    -0.169000000    -8.081000000    -4.280000000
C     1.481000000    -8.341000000    -3.140000000
H     1.973000000    -9.019000000    -3.832000000
C     2.162000000    -8.004000000    -1.959000000
H     3.131000000    -8.445000000    -1.736000000
C     1.691000000    -7.061000000    -1.041000000
O     2.329000000    -6.875000000     0.118000000
C     2.567000000    -5.692000000     0.787000000
C     2.477000000    -5.755000000     2.144000000
H     2.235000000    -6.691000000     2.640000000
C     2.749000000    -4.590000000     2.923000000
O     2.796000000    -4.579000000     4.297000000
C     2.677000000    -3.491000000     5.055000000
C     3.825000000    -3.023000000     5.630000000
H     4.729000000    -3.601000000     5.457000000
C     3.864000000    -1.858000000     6.288000000
H     4.785000000    -1.472000000     6.716000000
C     2.663000000    -1.145000000     6.473000000
H     2.675000000    -0.149000000     6.907000000
C     1.439000000    -1.651000000     5.990000000
C     1.483000000    -2.846000000     5.236000000
H     0.567000000    -3.161000000     4.744000000
O    -0.488000000    -6.007000000     1.554000000
H    -0.689000000    -5.314000000     2.184000000
H    -1.277000000    -6.080000000     1.018000000
O   -10.058000000    -4.164000000     0.946000000
H    -9.676000000    -3.926000000     0.101000000
H    -9.435000000    -3.830000000     1.593000000
O    -3.992000000    -5.124000000     5.624000000
H    -3.950000000    -4.168000000     5.583000000
H    -4.615000000    -5.365000000     4.938000000
O    -8.567000000    -0.051000000     0.074000000
H    -8.113000000     0.481000000    -0.579000000
H    -9.493000000     0.030000000    -0.152000000
O    -5.841000000    -2.934000000     3.648000000
H    -5.319000000    -2.753000000     2.867000000
H    -5.490000000    -2.341000000     4.313000000
O    -2.092000000    -1.516000000     4.126000000
H    -2.887000000    -0.988000000     4.048000000
H    -1.395000000    -0.951000000     3.793000000
O    -8.669000000    -3.601000000    -1.981000000
H    -8.133000000    -4.196000000    -2.505000000
H    -8.119000000    -3.384000000    -1.228000000
O    -1.743000000    -4.195000000     3.246000000
H    -2.501000000    -4.291000000     2.668000000
H    -1.798000000    -3.294000000     3.565000000
O    -4.320000000     0.041000000     4.280000000
H    -4.803000000     0.507000000     3.597000000
H    -4.900000000     0.063000000     5.041000000
O    -6.317000000    -5.682000000     3.564000000
H    -6.324000000    -4.725000000     3.570000000
H    -6.403000000    -5.916000000     2.640000000
O    -2.984000000    -6.415000000     0.559000000
H    -3.748000000    -6.876000000     0.214000000
H    -3.269000000    -5.505000000     0.638000000
O    -0.932000000    -6.363000000     4.672000000
H    -1.189000000    -5.499000000     4.350000000
H    -1.704000000    -6.911000000     4.531000000
O    -8.778000000    -2.823000000     2.942000000
H    -7.843000000    -2.784000000     3.142000000
H    -9.076000000    -1.916000000     3.015000000
O    -0.787000000    -8.547000000     1.996000000
H    -1.481000000    -8.709000000     2.636000000
H    -0.791000000    -7.597000000     1.875000000
O    -3.306000000    -2.294000000     6.783000000
H    -2.537000000    -2.378000000     7.347000000
H    -2.981000000    -1.846000000     6.002000000
O    -6.861000000    -7.336000000    -1.044000000
H    -6.599000000    -6.573000000    -0.528000000
H    -7.461000000    -7.817000000    -0.473000000
O    -6.160000000    -0.090000000     1.848000000
H    -5.829000000    -0.964000000     1.643000000
H    -7.100000000    -0.143000000     1.676000000
O    -6.085000000    -5.071000000     0.536000000
H    -5.463000000    -4.530000000     1.021000000
H    -6.377000000    -4.512000000    -0.185000000
O    -7.381000000    -2.747000000     0.079000000
H    -6.487000000    -2.578000000     0.376000000
H    -7.898000000    -2.039000000     0.463000000
