201
-1241.58507
C    -4.305000000     2.600000000     0.094000000
H    -4.260000000     2.202000000    -0.916000000
C    -3.281000000     3.349000000     0.562000000
C    -3.447000000     3.835000000     1.911000000
H    -2.584000000     4.250000000     2.425000000
C    -1.957000000     3.558000000    -0.247000000
O    -2.297000000     4.001000000    -1.591000000
H    -1.275000000     2.695000000    -0.264000000
O    -1.237000000     4.622000000     0.345000000
C     0.107000000     4.407000000     0.375000000
C     0.594000000     3.983000000     1.597000000
H    -0.148000000     3.799000000     2.369000000
C     1.927000000     3.684000000     1.759000000
O     2.348000000     3.054000000     2.919000000
C     2.787000000     3.904000000     0.678000000
C     4.251000000     3.530000000     0.835000000
H     4.892000000     4.181000000     0.238000000
C     4.514000000     2.071000000     0.511000000
C     4.798000000     1.716000000    -0.752000000
H     4.752000000     2.566000000    -1.428000000
H     4.560000000     3.705000000     1.868000000
C     2.314000000     4.503000000    -0.474000000
H     3.087000000     4.897000000    -1.129000000
C     0.970000000     4.713000000    -0.711000000
C     0.438000000     5.178000000    -2.012000000
H     1.175000000     5.648000000    -2.666000000
H    -0.330000000     5.938000000    -1.858000000
C    -0.189000000     4.046000000    -2.803000000
C     0.616000000     3.348000000    -3.745000000
H     1.654000000     3.647000000    -3.865000000
C    -1.493000000     3.610000000    -2.616000000
C    -1.981000000     2.469000000    -3.285000000
H    -2.947000000     2.089000000    -2.964000000
C    -1.199000000     1.808000000    -4.206000000
O    -1.730000000     0.687000000    -4.735000000
C    -1.241000000    -0.550000000    -4.111000000
C    -2.406000000    -1.542000000    -4.003000000
C    -2.216000000    -2.874000000    -4.023000000
H    -1.239000000    -3.348000000    -4.072000000
C    -3.630000000    -1.005000000    -3.713000000
H    -3.763000000     0.070000000    -3.801000000
O    -0.216000000    -1.102000000    -4.926000000
H    -0.884000000    -0.334000000    -3.093000000
C     0.091000000     2.263000000    -4.496000000
C     0.957000000     1.490000000    -5.479000000
H     1.633000000     2.237000000    -5.899000000
H     0.392000000     1.225000000    -6.376000000
C     1.710000000     0.359000000    -4.790000000
C     2.970000000     0.610000000    -4.215000000
H     3.445000000     1.573000000    -4.382000000
C     1.122000000    -0.842000000    -4.550000000
C     1.830000000    -1.830000000    -3.889000000
H     1.406000000    -2.816000000    -3.722000000
C     2.958000000    -1.548000000    -3.194000000
O     3.395000000    -2.578000000    -2.390000000
C     3.496000000    -2.331000000    -0.996000000
C     2.923000000    -3.536000000    -0.188000000
C     1.669000000    -4.046000000    -0.425000000
H     1.148000000    -3.740000000    -1.329000000
C     3.572000000    -4.032000000     0.951000000
H     4.527000000    -3.564000000     1.172000000
O     4.714000000    -1.880000000    -0.538000000
H     2.772000000    -1.515000000    -0.856000000
C     3.597000000    -0.284000000    -3.337000000
C     4.900000000     0.130000000    -2.656000000
H     5.312000000     0.941000000    -3.260000000
H     5.627000000    -0.670000000    -2.813000000
C     4.864000000     0.409000000    -1.136000000
C     4.831000000    -0.602000000    -0.180000000
C     4.557000000    -0.334000000     1.124000000
H     4.692000000    -1.148000000     1.832000000
C     4.443000000     1.049000000     1.502000000
O     3.961000000     1.331000000     2.753000000
C     2.574000000     1.631000000     2.819000000
H     2.063000000     1.313000000     1.898000000
C     1.854000000     0.845000000     3.918000000
C     0.661000000     1.213000000     4.378000000
H     0.291000000     2.158000000     3.989000000
C     2.428000000    -0.337000000     4.413000000
H     3.404000000    -0.617000000     4.026000000
C     1.764000000    -1.069000000     5.401000000
O     2.352000000    -2.099000000     6.082000000
C     0.444000000    -0.726000000     5.778000000
H    -0.108000000    -1.339000000     6.486000000
C    -0.145000000     0.439000000     5.275000000
O    -1.403000000     0.820000000     5.695000000
C    -1.928000000     2.129000000     5.758000000
C    -3.084000000     2.382000000     5.066000000
H    -3.535000000     1.500000000     4.617000000
C    -1.264000000     3.153000000     6.466000000
H    -0.414000000     3.016000000     7.130000000
C    -1.727000000     4.447000000     6.227000000
H    -1.218000000     5.292000000     6.681000000
C    -2.821000000     4.722000000     5.462000000
H    -3.084000000     5.760000000     5.277000000
C    -3.574000000     3.664000000     4.892000000
O    -4.635000000     3.990000000     4.060000000
C    -4.558000000     3.584000000     2.669000000
C    -5.539000000     2.854000000     2.092000000
H    -6.403000000     2.654000000     2.720000000
C    -5.508000000     2.366000000     0.749000000
O    -6.431000000     1.476000000     0.249000000
C    -6.536000000     1.236000000    -1.104000000
C    -6.172000000     0.017000000    -1.592000000
H    -5.704000000    -0.767000000    -1.002000000
C    -7.172000000     2.142000000    -1.917000000
H    -7.332000000     3.109000000    -1.447000000
C    -7.410000000     1.945000000    -3.237000000
H    -7.985000000     2.677000000    -3.799000000
C    -6.947000000     0.781000000    -3.773000000
H    -7.096000000     0.591000000    -4.832000000
C    -6.302000000    -0.176000000    -2.932000000
O    -6.024000000    -1.380000000    -3.406000000
C    -4.720000000    -1.816000000    -3.551000000
C    -4.571000000    -3.199000000    -3.545000000
H    -5.466000000    -3.801000000    -3.408000000
C    -3.283000000    -3.755000000    -3.833000000
O    -3.134000000    -5.096000000    -3.757000000
C    -2.106000000    -5.736000000    -3.044000000
C    -1.694000000    -5.329000000    -1.746000000
H    -2.364000000    -4.604000000    -1.293000000
C    -1.393000000    -6.716000000    -3.769000000
H    -1.676000000    -7.043000000    -4.766000000
C    -0.236000000    -7.262000000    -3.188000000
H     0.399000000    -7.888000000    -3.810000000
C     0.166000000    -6.910000000    -1.902000000
H     1.093000000    -7.311000000    -1.500000000
C    -0.584000000    -5.947000000    -1.179000000
O    -0.188000000    -5.578000000     0.065000000
C     1.051000000    -5.078000000     0.321000000
C     1.768000000    -5.583000000     1.363000000
H     1.467000000    -6.423000000     1.983000000
C     3.003000000    -5.021000000     1.718000000
O     3.599000000    -5.530000000     2.849000000
C     4.034000000    -4.626000000     3.843000000
C     5.195000000    -4.810000000     4.542000000
H     5.924000000    -5.545000000     4.211000000
C     5.398000000    -4.130000000     5.751000000
H     6.240000000    -4.434000000     6.367000000
C     4.435000000    -3.232000000     6.246000000
H     4.492000000    -2.642000000     7.158000000
C     3.303000000    -2.915000000     5.528000000
C     3.036000000    -3.743000000     4.389000000
H     2.003000000    -3.649000000     4.064000000
O    -3.995000000    -7.902000000     2.515000000
H    -4.912000000    -8.137000000     2.659000000
H    -4.021000000    -6.974000000     2.279000000
O   -10.285000000    -3.879000000     1.184000000
H   -10.213000000    -4.733000000     0.757000000
H    -9.453000000    -3.446000000     0.995000000
O    -8.152000000    -0.210000000     1.134000000
H    -7.366000000     0.329000000     1.051000000
H    -8.714000000     0.279000000     1.735000000
O    -6.587000000    -6.538000000    -2.688000000
H    -7.027000000    -5.802000000    -2.262000000
H    -5.710000000    -6.548000000    -2.303000000
O    -8.425000000    -5.032000000     3.249000000
H    -7.766000000    -4.387000000     2.991000000
H    -9.221000000    -4.519000000     3.386000000
O    -1.436000000    -3.139000000     2.785000000
H    -1.447000000    -2.615000000     1.984000000
H    -1.521000000    -4.043000000     2.480000000
O    -7.170000000    -2.516000000     5.317000000
H    -7.715000000    -2.956000000     5.970000000
H    -7.778000000    -2.286000000     4.614000000
O    -5.015000000    -1.901000000     6.944000000
H    -5.646000000    -2.182000000     6.282000000
H    -4.223000000    -1.694000000     6.447000000
O    -2.928000000    -1.897000000     4.724000000
H    -3.807000000    -1.961000000     4.352000000
H    -2.362000000    -2.314000000     4.075000000
O    -3.992000000    -5.087000000     2.356000000
H    -4.239000000    -4.277000000     1.910000000
H    -4.303000000    -4.971000000     3.254000000
O    -8.218000000    -3.498000000    -1.317000000
H    -8.509000000    -4.391000000    -1.131000000
H    -7.292000000    -3.590000000    -1.541000000
O    -2.903000000    -5.997000000     5.331000000
H    -3.835000000    -5.816000000     5.451000000
H    -2.858000000    -6.943000000     5.191000000
O    -5.467000000    -4.844000000     5.034000000
H    -5.982000000    -4.042000000     4.941000000
H    -6.046000000    -5.447000000     5.499000000
O    -9.675000000    -1.345000000    -0.928000000
H    -9.063000000    -2.053000000    -1.129000000
H    -9.185000000    -0.763000000    -0.347000000
O    -1.674000000    -3.915000000     6.510000000
H    -2.012000000    -4.513000000     5.843000000
H    -1.551000000    -3.086000000     6.049000000
O    -6.133000000     0.303000000     4.687000000
H    -5.539000000    -0.187000000     4.118000000
H    -6.928000000    -0.230000000     4.720000000
O    -5.711000000    -4.727000000    -0.169000000
H    -5.977000000    -5.275000000     0.570000000
H    -5.276000000    -3.976000000     0.235000000
O    -4.078000000    -7.617000000    -0.871000000
H    -3.331000000    -7.048000000    -0.686000000
H    -4.090000000    -8.240000000    -0.144000000
O    -7.319000000    -2.790000000     2.383000000
H    -6.392000000    -2.716000000     2.158000000
H    -7.706000000    -1.968000000     2.080000000
