201
-1239.03208
C    -4.367000000     2.525000000     1.635000000
H    -4.609000000     2.417000000     0.581000000
C    -3.068000000     2.925000000     1.970000000
C    -2.652000000     2.776000000     3.327000000
H    -1.646000000     3.120000000     3.553000000
C    -1.996000000     3.456000000     0.952000000
O    -2.642000000     4.206000000    -0.032000000
H    -1.483000000     2.559000000     0.575000000
O    -1.036000000     4.358000000     1.686000000
C     0.262000000     4.471000000     1.276000000
C     1.199000000     3.821000000     2.083000000
H     0.855000000     3.443000000     3.042000000
C     2.539000000     3.649000000     1.756000000
O     3.378000000     2.970000000     2.589000000
C     3.007000000     4.130000000     0.542000000
C     4.363000000     3.695000000    -0.067000000
H     4.656000000     4.521000000    -0.719000000
C     4.386000000     2.311000000    -0.675000000
C     4.246000000     2.038000000    -2.065000000
H     4.181000000     2.836000000    -2.800000000
H     5.121000000     3.660000000     0.718000000
C     2.039000000     4.757000000    -0.255000000
H     2.437000000     5.112000000    -1.202000000
C     0.669000000     4.867000000     0.020000000
C    -0.275000000     5.516000000    -0.992000000
H     0.243000000     6.204000000    -1.664000000
H    -0.950000000     6.155000000    -0.420000000
C    -0.949000000     4.409000000    -1.753000000
C    -0.466000000     3.882000000    -2.955000000
H     0.447000000     4.257000000    -3.409000000
C    -2.210000000     4.002000000    -1.289000000
C    -2.993000000     3.075000000    -1.996000000
H    -4.021000000     2.889000000    -1.693000000
C    -2.477000000     2.460000000    -3.087000000
O    -3.178000000     1.339000000    -3.602000000
C    -2.569000000    -0.014000000    -3.467000000
C    -3.544000000    -1.112000000    -3.062000000
C    -3.298000000    -2.484000000    -3.295000000
H    -2.302000000    -2.721000000    -3.662000000
C    -4.709000000    -0.751000000    -2.376000000
H    -4.944000000     0.281000000    -2.127000000
O    -1.824000000    -0.404000000    -4.628000000
H    -1.889000000     0.041000000    -2.605000000
C    -1.250000000     2.913000000    -3.602000000
C    -0.790000000     2.387000000    -4.940000000
H    -0.204000000     3.211000000    -5.351000000
H    -1.558000000     2.161000000    -5.682000000
C     0.125000000     1.212000000    -4.787000000
C     1.533000000     1.395000000    -4.631000000
H     1.983000000     2.364000000    -4.831000000
C    -0.446000000    -0.054000000    -4.619000000
C     0.383000000    -1.114000000    -4.274000000
H    -0.018000000    -2.124000000    -4.309000000
C     1.739000000    -0.968000000    -4.113000000
O     2.400000000    -2.112000000    -3.614000000
C     2.624000000    -2.115000000    -2.169000000
C     2.461000000    -3.579000000    -1.585000000
C     1.379000000    -4.433000000    -1.870000000
H     0.586000000    -4.068000000    -2.518000000
C     3.339000000    -3.987000000    -0.564000000
H     4.179000000    -3.336000000    -0.333000000
O     3.971000000    -1.620000000    -2.011000000
H     1.928000000    -1.455000000    -1.630000000
C     2.327000000     0.315000000    -4.175000000
C     3.856000000     0.522000000    -3.955000000
H     4.125000000     1.390000000    -4.561000000
H     4.287000000    -0.352000000    -4.449000000
C     4.084000000     0.731000000    -2.460000000
C     4.137000000    -0.309000000    -1.574000000
C     4.242000000    -0.043000000    -0.188000000
H     4.231000000    -0.789000000     0.602000000
C     4.352000000     1.244000000     0.232000000
O     4.573000000     1.360000000     1.574000000
C     3.378000000     1.563000000     2.365000000
H     2.440000000     1.327000000     1.842000000
C     3.356000000     0.677000000     3.638000000
C     2.368000000     0.814000000     4.569000000
H     1.708000000     1.655000000     4.371000000
C     4.090000000    -0.531000000     3.684000000
H     4.846000000    -0.649000000     2.912000000
C     3.891000000    -1.450000000     4.717000000
O     4.617000000    -2.593000000     4.850000000
C     2.975000000    -1.186000000     5.724000000
H     2.809000000    -1.963000000     6.466000000
C     2.099000000    -0.108000000     5.579000000
O     1.020000000    -0.047000000     6.428000000
C     0.258000000     1.052000000     6.393000000
C    -1.027000000     1.047000000     5.849000000
H    -1.359000000     0.169000000     5.301000000
C     0.753000000     2.240000000     7.010000000
H     1.688000000     2.164000000     7.560000000
C    -0.080000000     3.342000000     7.154000000
H     0.182000000     4.238000000     7.711000000
C    -1.365000000     3.284000000     6.695000000
H    -2.000000000     4.129000000     6.949000000
C    -1.770000000     2.215000000     5.989000000
O    -3.107000000     2.136000000     5.595000000
C    -3.476000000     2.223000000     4.274000000
C    -4.735000000     1.853000000     3.931000000
H    -5.344000000     1.343000000     4.673000000
C    -5.191000000     2.036000000     2.618000000
O    -6.489000000     1.658000000     2.379000000
C    -6.963000000     1.322000000     1.160000000
C    -6.702000000     0.111000000     0.494000000
H    -6.145000000    -0.645000000     1.042000000
C    -7.505000000     2.341000000     0.395000000
H    -7.421000000     3.371000000     0.735000000
C    -7.897000000     2.105000000    -0.927000000
H    -8.384000000     2.868000000    -1.528000000
C    -7.691000000     0.841000000    -1.505000000
H    -7.998000000     0.735000000    -2.542000000
C    -7.104000000    -0.188000000    -0.782000000
O    -6.750000000    -1.440000000    -1.317000000
C    -5.639000000    -1.784000000    -2.031000000
C    -5.377000000    -3.061000000    -2.338000000
H    -6.161000000    -3.795000000    -2.167000000
C    -4.151000000    -3.490000000    -2.851000000
O    -3.946000000    -4.824000000    -3.145000000
C    -2.714000000    -5.404000000    -3.405000000
C    -1.825000000    -5.840000000    -2.427000000
H    -2.192000000    -5.814000000    -1.404000000
C    -2.435000000    -5.672000000    -4.737000000
H    -3.130000000    -5.415000000    -5.533000000
C    -1.149000000    -6.256000000    -5.028000000
H    -0.919000000    -6.504000000    -6.061000000
C    -0.254000000    -6.665000000    -4.038000000
H     0.687000000    -7.150000000    -4.287000000
C    -0.601000000    -6.451000000    -2.694000000
O     0.255000000    -6.613000000    -1.698000000
C     1.179000000    -5.657000000    -1.231000000
C     2.066000000    -6.000000000    -0.204000000
H     1.930000000    -6.857000000     0.450000000
C     3.085000000    -5.168000000     0.087000000
O     3.947000000    -5.605000000     1.086000000
C     4.782000000    -4.790000000     1.886000000
C     6.188000000    -4.716000000     1.669000000
H     6.651000000    -5.355000000     0.922000000
C     7.007000000    -4.008000000     2.576000000
H     8.090000000    -4.047000000     2.495000000
C     6.481000000    -3.339000000     3.661000000
H     7.151000000    -2.880000000     4.384000000
C     5.074000000    -3.275000000     3.744000000
C     4.247000000    -4.009000000     2.897000000
H     3.163000000    -3.989000000     2.974000000
O    -7.324000000    -5.213000000     4.452000000
H    -6.411000000    -5.051000000     4.214000000
H    -7.764000000    -4.377000000     4.298000000
O    -8.219000000    -2.419000000     1.027000000
H    -9.098000000    -2.726000000     1.249000000
H    -8.353000000    -1.816000000     0.296000000
O    -4.044000000    -8.437000000    -1.907000000
H    -3.205000000    -8.882000000    -1.785000000
H    -4.423000000    -8.396000000    -1.029000000
O    -4.780000000    -5.186000000     3.640000000
H    -4.755000000    -4.355000000     3.165000000
H    -3.922000000    -5.249000000     4.059000000
O    -1.221000000    -5.894000000     2.613000000
H    -1.668000000    -6.731000000     2.489000000
H    -1.550000000    -5.339000000     1.907000000
O    -9.752000000    -1.706000000     3.934000000
H    -9.891000000    -1.928000000     4.855000000
H    -9.193000000    -2.408000000     3.601000000
O    -2.984000000    -2.163000000     7.637000000
H    -3.298000000    -1.927000000     6.765000000
H    -2.516000000    -1.386000000     7.943000000
O    -7.289000000    -0.848000000     5.773000000
H    -6.655000000    -1.292000000     5.210000000
H    -8.139000000    -1.042000000     5.377000000
O    -3.312000000    -1.884000000     4.836000000
H    -3.634000000    -2.194000000     3.989000000
H    -2.360000000    -1.865000000     4.737000000
O    -3.426000000    -6.910000000     1.162000000
H    -4.275000000    -7.349000000     1.222000000
H    -3.636000000    -5.977000000     1.209000000
O    -6.623000000    -6.357000000    -1.632000000
H    -7.012000000    -5.856000000    -0.915000000
H    -5.968000000    -6.912000000    -1.209000000
O    -0.830000000    -2.521000000     4.327000000
H    -0.221000000    -2.804000000     5.009000000
H    -0.314000000    -2.544000000     3.521000000
O     0.651000000    -2.718000000     1.854000000
H     0.747000000    -3.621000000     1.551000000
H    -0.091000000    -2.376000000     1.356000000
O    -2.653000000    -4.845000000     5.293000000
H    -1.767000000    -4.980000000     4.957000000
H    -2.857000000    -3.937000000     5.072000000
O    -5.919000000    -7.849000000     3.200000000
H    -5.591000000    -6.953000000     3.130000000
H    -6.145000000    -8.093000000     2.302000000
O    -8.166000000    -6.697000000     1.740000000
H    -7.989000000    -6.178000000     2.525000000
H    -7.569000000    -6.346000000     1.080000000
O    -6.708000000    -2.392000000     3.339000000
H    -7.051000000    -2.757000000     2.523000000
H    -5.757000000    -2.440000000     3.242000000
O    -8.717000000    -4.357000000    -1.778000000
H    -9.564000000    -4.194000000    -2.192000000
H    -8.101000000    -3.814000000    -2.270000000
O    -6.405000000    -4.891000000     0.734000000
H    -5.508000000    -4.557000000     0.724000000
H    -6.953000000    -4.108000000     0.672000000
