201
-1242.08051
C    -4.250000000     1.927000000     1.781000000
H    -4.473000000     1.916000000     0.717000000
C    -3.076000000     2.550000000     2.254000000
C    -2.643000000     2.530000000     3.530000000
H    -1.629000000     2.776000000     3.835000000
C    -2.179000000     3.245000000     1.232000000
O    -3.000000000     3.925000000     0.247000000
H    -1.687000000     2.400000000     0.729000000
O    -1.309000000     4.242000000     1.913000000
C     0.027000000     4.332000000     1.553000000
C     0.905000000     3.644000000     2.365000000
H     0.559000000     3.259000000     3.320000000
C     2.211000000     3.370000000     1.943000000
O     3.142000000     2.760000000     2.777000000
C     2.600000000     3.880000000     0.670000000
C     3.949000000     3.676000000    -0.004000000
H     4.088000000     4.492000000    -0.716000000
C     4.081000000     2.304000000    -0.517000000
C     3.948000000     2.205000000    -1.928000000
H     3.812000000     3.139000000    -2.467000000
H     4.743000000     3.852000000     0.725000000
C     1.674000000     4.523000000    -0.142000000
H     1.883000000     4.954000000    -1.118000000
C     0.366000000     4.777000000     0.265000000
C    -0.690000000     5.443000000    -0.659000000
H    -0.296000000     6.109000000    -1.429000000
H    -1.329000000     6.052000000    -0.017000000
C    -1.394000000     4.409000000    -1.452000000
C    -0.776000000     3.960000000    -2.655000000
H     0.165000000     4.450000000    -2.891000000
C    -2.490000000     3.716000000    -0.984000000
C    -3.165000000     2.771000000    -1.797000000
H    -4.065000000     2.261000000    -1.464000000
C    -2.626000000     2.360000000    -2.983000000
O    -3.271000000     1.329000000    -3.602000000
C    -2.646000000     0.021000000    -3.451000000
C    -3.648000000    -1.085000000    -3.337000000
C    -3.285000000    -2.379000000    -3.662000000
H    -2.441000000    -2.592000000    -4.313000000
C    -4.871000000    -0.855000000    -2.713000000
H    -4.968000000     0.175000000    -2.380000000
O    -1.816000000    -0.327000000    -4.571000000
H    -1.961000000     0.042000000    -2.591000000
C    -1.400000000     2.920000000    -3.408000000
C    -0.848000000     2.546000000    -4.830000000
H    -0.308000000     3.380000000    -5.283000000
H    -1.707000000     2.373000000    -5.482000000
C     0.074000000     1.331000000    -4.676000000
C     1.446000000     1.528000000    -4.415000000
H     1.891000000     2.514000000    -4.315000000
C    -0.445000000    -0.030000000    -4.594000000
C     0.430000000    -1.111000000    -4.274000000
H     0.061000000    -2.133000000    -4.244000000
C     1.804000000    -0.935000000    -4.220000000
O     2.491000000    -2.012000000    -3.649000000
C     2.865000000    -1.921000000    -2.261000000
C     2.618000000    -3.302000000    -1.663000000
C     1.520000000    -4.118000000    -1.949000000
H     0.800000000    -3.658000000    -2.621000000
C     3.522000000    -3.767000000    -0.673000000
H     4.296000000    -3.077000000    -0.348000000
O     4.223000000    -1.450000000    -2.169000000
H     2.179000000    -1.256000000    -1.715000000
C     2.307000000     0.428000000    -4.240000000
C     3.748000000     0.702000000    -4.005000000
H     4.081000000     1.558000000    -4.595000000
H     4.303000000    -0.165000000    -4.369000000
C     4.033000000     0.910000000    -2.498000000
C     4.335000000    -0.202000000    -1.667000000
C     4.433000000    -0.042000000    -0.217000000
H     4.579000000    -0.905000000     0.427000000
C     4.386000000     1.216000000     0.358000000
O     4.624000000     1.378000000     1.721000000
C     3.387000000     1.420000000     2.458000000
H     2.586000000     1.039000000     1.808000000
C     3.473000000     0.555000000     3.690000000
C     2.601000000     0.857000000     4.734000000
H     1.919000000     1.702000000     4.785000000
C     4.184000000    -0.693000000     3.700000000
H     4.849000000    -0.930000000     2.873000000
C     3.981000000    -1.594000000     4.805000000
O     4.696000000    -2.773000000     4.927000000
C     3.208000000    -1.169000000     5.927000000
H     3.037000000    -1.865000000     6.745000000
C     2.416000000    -0.025000000     5.794000000
O     1.301000000     0.120000000     6.646000000
C     0.427000000     1.162000000     6.657000000
C    -0.903000000     0.907000000     6.358000000
H    -1.114000000    -0.099000000     6.002000000
C     0.798000000     2.492000000     6.960000000
H     1.797000000     2.818000000     7.234000000
C    -0.192000000     3.520000000     6.844000000
H    -0.038000000     4.515000000     7.253000000
C    -1.459000000     3.210000000     6.378000000
H    -2.285000000     3.915000000     6.327000000
C    -1.815000000     1.909000000     6.154000000
O    -3.079000000     1.550000000     5.676000000
C    -3.464000000     1.775000000     4.426000000
C    -4.628000000     1.234000000     4.090000000
H    -5.160000000     0.734000000     4.895000000
C    -5.099000000     1.371000000     2.757000000
O    -6.287000000     0.724000000     2.319000000
C    -6.867000000     0.722000000     1.129000000
C    -6.574000000    -0.373000000     0.344000000
H    -5.998000000    -1.206000000     0.737000000
C    -7.680000000     1.696000000     0.655000000
H    -7.934000000     2.541000000     1.290000000
C    -7.993000000     1.741000000    -0.768000000
H    -8.517000000     2.582000000    -1.214000000
C    -7.647000000     0.614000000    -1.547000000
H    -7.850000000     0.757000000    -2.605000000
C    -7.079000000    -0.533000000    -0.970000000
O    -6.883000000    -1.604000000    -1.782000000
C    -5.783000000    -1.879000000    -2.542000000
C    -5.482000000    -3.195000000    -2.940000000
H    -6.209000000    -4.002000000    -2.961000000
C    -4.191000000    -3.418000000    -3.439000000
O    -3.802000000    -4.692000000    -3.754000000
C    -2.554000000    -5.169000000    -3.904000000
C    -1.814000000    -5.491000000    -2.751000000
H    -2.168000000    -5.407000000    -1.727000000
C    -1.890000000    -4.938000000    -5.127000000
H    -2.350000000    -4.391000000    -5.946000000
C    -0.515000000    -5.151000000    -5.233000000
H    -0.008000000    -4.955000000    -6.174000000
C     0.174000000    -5.706000000    -4.153000000
H     1.234000000    -5.936000000    -4.227000000
C    -0.436000000    -5.901000000    -2.893000000
O     0.250000000    -6.225000000    -1.783000000
C     1.256000000    -5.375000000    -1.352000000
C     2.199000000    -5.821000000    -0.445000000
H     1.988000000    -6.779000000     0.023000000
C     3.338000000    -5.003000000    -0.102000000
O     4.179000000    -5.408000000     0.894000000
C     4.952000000    -4.578000000     1.719000000
C     6.304000000    -4.646000000     1.509000000
H     6.766000000    -5.180000000     0.682000000
C     7.060000000    -3.965000000     2.460000000
H     8.113000000    -4.110000000     2.230000000
C     6.567000000    -3.195000000     3.487000000
H     7.201000000    -2.638000000     4.172000000
C     5.195000000    -3.302000000     3.785000000
C     4.400000000    -4.032000000     2.854000000
H     3.334000000    -4.086000000     3.058000000
O    -4.410000000    -5.737000000     4.778000000
H    -4.382000000    -5.035000000     4.128000000
H    -4.406000000    -5.283000000     5.620000000
O    -4.829000000    -4.528000000     7.292000000
H    -4.913000000    -5.264000000     7.899000000
H    -4.499000000    -3.810000000     7.832000000
O    -2.243000000    -5.413000000     2.594000000
H    -2.722000000    -4.592000000     2.706000000
H    -2.499000000    -5.723000000     1.725000000
O     0.506000000    -4.822000000     2.705000000
H    -0.447000000    -4.862000000     2.631000000
H     0.779000000    -5.737000000     2.771000000
O    -3.485000000    -2.198000000     8.223000000
H    -3.096000000    -2.270000000     7.351000000
H    -2.999000000    -1.489000000     8.644000000
O    -7.943000000    -1.416000000     5.014000000
H    -7.004000000    -1.571000000     4.914000000
H    -8.251000000    -2.145000000     5.552000000
O    -2.019000000    -3.216000000     6.020000000
H    -2.426000000    -2.661000000     5.354000000
H    -1.089000000    -3.222000000     5.792000000
O     0.158000000    -2.280000000     8.407000000
H    -0.651000000    -1.866000000     8.707000000
H     0.086000000    -2.281000000     7.452000000
O    -2.720000000    -6.842000000     0.338000000
H    -2.889000000    -7.746000000     0.600000000
H    -3.542000000    -6.549000000    -0.055000000
O    -5.326000000    -5.572000000    -0.362000000
H    -5.986000000    -5.367000000    -1.023000000
H    -5.583000000    -5.055000000     0.402000000
O     0.712000000    -2.958000000     5.289000000
H     1.381000000    -3.573000000     5.592000000
H     1.042000000    -2.642000000     4.448000000
O     1.319000000    -2.156000000     2.334000000
H     0.788000000    -2.941000000     2.472000000
H     0.747000000    -1.561000000     1.850000000
O    -7.405000000    -5.478000000     5.157000000
H    -6.487000000    -5.397000000     4.899000000
H    -7.861000000    -5.715000000     4.350000000
O    -1.511000000    -6.091000000     5.866000000
H    -1.931000000    -5.305000000     6.216000000
H    -1.773000000    -6.112000000     4.945000000
O    -6.274000000    -7.589000000     1.643000000
H    -6.401000000    -8.306000000     1.021000000
H    -5.702000000    -6.973000000     1.185000000
O    -5.269000000    -2.576000000     5.470000000
H    -4.784000000    -3.094000000     6.112000000
H    -4.611000000    -2.316000000     4.826000000
O    -8.163000000     1.518000000     4.385000000
H    -7.770000000     0.651000000     4.284000000
H    -9.091000000     1.384000000     4.196000000
O    -0.768000000    -8.117000000     2.936000000
H    -0.589000000    -8.642000000     2.156000000
H    -1.412000000    -7.471000000     2.648000000
O    -5.830000000    -4.520000000     2.070000000
H    -5.030000000    -3.997000000     2.014000000
H    -6.540000000    -3.881000000     2.001000000
