201
-1235.11985
C    -4.317000000     2.130000000     1.894000000
H    -4.863000000     2.329000000     0.976000000
C    -3.088000000     2.658000000     2.128000000
C    -2.516000000     2.340000000     3.347000000
H    -1.463000000     2.596000000     3.435000000
C    -2.199000000     3.329000000     1.045000000
O    -3.056000000     3.934000000     0.072000000
H    -1.629000000     2.491000000     0.618000000
O    -1.319000000     4.349000000     1.518000000
C    -0.070000000     4.393000000     1.010000000
C     0.935000000     3.979000000     1.849000000
H     0.687000000     3.814000000     2.894000000
C     2.221000000     3.911000000     1.397000000
O     3.183000000     3.411000000     2.196000000
C     2.515000000     4.250000000     0.065000000
C     3.910000000     4.072000000    -0.459000000
H     4.015000000     4.794000000    -1.271000000
C     4.196000000     2.636000000    -1.019000000
C     3.840000000     2.375000000    -2.351000000
H     3.453000000     3.153000000    -3.004000000
H     4.678000000     4.283000000     0.289000000
C     1.462000000     4.719000000    -0.770000000
H     1.675000000     4.992000000    -1.801000000
C     0.180000000     4.801000000    -0.298000000
C    -0.882000000     5.263000000    -1.272000000
H    -0.332000000     5.840000000    -2.019000000
H    -1.630000000     5.976000000    -0.919000000
C    -1.669000000     4.182000000    -1.924000000
C    -1.156000000     3.659000000    -3.077000000
H    -0.358000000     4.168000000    -3.611000000
C    -2.745000000     3.547000000    -1.246000000
C    -3.256000000     2.421000000    -1.843000000
H    -4.100000000     1.982000000    -1.316000000
C    -2.796000000     1.988000000    -3.057000000
O    -3.361000000     0.797000000    -3.494000000
C    -2.684000000    -0.503000000    -3.387000000
C    -3.689000000    -1.556000000    -3.029000000
C    -3.389000000    -2.883000000    -3.299000000
H    -2.459000000    -3.157000000    -3.792000000
C    -4.924000000    -1.326000000    -2.391000000
H    -5.166000000    -0.271000000    -2.290000000
O    -1.848000000    -0.872000000    -4.562000000
H    -1.995000000    -0.453000000    -2.531000000
C    -1.673000000     2.536000000    -3.668000000
C    -1.149000000     1.949000000    -4.989000000
H    -0.805000000     2.791000000    -5.593000000
H    -1.986000000     1.545000000    -5.564000000
C    -0.151000000     0.872000000    -4.682000000
C     1.210000000     1.242000000    -4.449000000
H     1.497000000     2.290000000    -4.411000000
C    -0.526000000    -0.465000000    -4.610000000
C     0.430000000    -1.413000000    -4.327000000
H     0.197000000    -2.471000000    -4.408000000
C     1.729000000    -1.098000000    -4.227000000
O     2.476000000    -2.081000000    -3.696000000
C     2.985000000    -1.922000000    -2.308000000
C     2.847000000    -3.208000000    -1.458000000
C     1.617000000    -3.870000000    -1.465000000
H     0.769000000    -3.298000000    -1.833000000
C     3.818000000    -3.621000000    -0.543000000
H     4.847000000    -3.276000000    -0.489000000
O     4.307000000    -1.323000000    -2.396000000
H     2.331000000    -1.166000000    -1.849000000
C     2.176000000     0.238000000    -4.287000000
C     3.618000000     0.585000000    -4.202000000
H     3.799000000     1.338000000    -4.972000000
H     4.247000000    -0.293000000    -4.359000000
C     3.910000000     1.037000000    -2.790000000
C     4.368000000    -0.013000000    -1.920000000
C     4.722000000     0.285000000    -0.607000000
H     5.064000000    -0.462000000     0.105000000
C     4.605000000     1.609000000    -0.159000000
O     4.685000000     1.835000000     1.214000000
C     3.483000000     2.017000000     1.961000000
H     2.734000000     1.581000000     1.283000000
C     3.407000000     1.212000000     3.242000000
C     2.695000000     1.692000000     4.356000000
H     2.206000000     2.663000000     4.368000000
C     4.032000000    -0.030000000     3.380000000
H     4.505000000    -0.448000000     2.495000000
C     3.957000000    -0.806000000     4.506000000
O     4.602000000    -2.053000000     4.588000000
C     3.221000000    -0.411000000     5.530000000
H     3.093000000    -0.996000000     6.437000000
C     2.630000000     0.856000000     5.509000000
O     1.921000000     1.294000000     6.608000000
C     0.737000000     1.949000000     6.619000000
C    -0.388000000     1.174000000     6.265000000
H    -0.227000000     0.099000000     6.271000000
C     0.655000000     3.341000000     6.724000000
H     1.528000000     3.932000000     6.989000000
C    -0.548000000     3.965000000     6.418000000
H    -0.674000000     5.028000000     6.609000000
C    -1.666000000     3.207000000     6.190000000
H    -2.644000000     3.661000000     6.058000000
C    -1.601000000     1.789000000     6.079000000
O    -2.637000000     1.135000000     5.411000000
C    -3.216000000     1.569000000     4.300000000
C    -4.496000000     1.124000000     4.004000000
H    -5.129000000     0.546000000     4.673000000
C    -5.090000000     1.416000000     2.815000000
O    -6.360000000     1.027000000     2.458000000
C    -6.810000000     0.732000000     1.156000000
C    -6.709000000    -0.630000000     0.725000000
H    -6.201000000    -1.437000000     1.248000000
C    -7.460000000     1.735000000     0.436000000
H    -7.683000000     2.739000000     0.789000000
C    -7.967000000     1.415000000    -0.785000000
H    -8.306000000     2.221000000    -1.430000000
C    -7.761000000     0.158000000    -1.359000000
H    -8.117000000     0.045000000    -2.379000000
C    -7.201000000    -0.916000000    -0.556000000
O    -6.911000000    -2.137000000    -1.125000000
C    -5.757000000    -2.340000000    -1.842000000
C    -5.347000000    -3.662000000    -2.134000000
H    -5.904000000    -4.517000000    -1.761000000
C    -4.202000000    -3.903000000    -2.803000000
O    -3.895000000    -5.245000000    -3.034000000
C    -2.572000000    -5.705000000    -2.945000000
C    -1.770000000    -5.574000000    -1.834000000
H    -2.120000000    -5.019000000    -0.968000000
C    -2.089000000    -6.487000000    -4.000000000
H    -2.652000000    -6.523000000    -4.929000000
C    -0.808000000    -7.038000000    -3.957000000
H    -0.472000000    -7.740000000    -4.715000000
C    -0.023000000    -6.806000000    -2.818000000
H     0.952000000    -7.286000000    -2.848000000
C    -0.470000000    -6.008000000    -1.764000000
O     0.337000000    -5.787000000    -0.661000000
C     1.357000000    -4.959000000    -0.566000000
C     2.416000000    -5.404000000     0.254000000
H     2.387000000    -6.293000000     0.879000000
C     3.582000000    -4.705000000     0.236000000
O     4.608000000    -5.187000000     0.969000000
C     5.341000000    -4.349000000     1.886000000
C     6.722000000    -4.204000000     1.738000000
H     7.238000000    -4.748000000     0.951000000
C     7.432000000    -3.261000000     2.512000000
H     8.492000000    -3.118000000     2.317000000
C     6.732000000    -2.486000000     3.479000000
H     7.276000000    -1.771000000     4.090000000
C     5.377000000    -2.659000000     3.637000000
C     4.656000000    -3.606000000     2.857000000
H     3.623000000    -3.837000000     3.103000000
O    -2.943000000    -5.172000000     4.910000000
H    -2.997000000    -4.225000000     4.778000000
H    -3.295000000    -5.311000000     5.789000000
O    -1.676000000    -4.076000000     8.364000000
H    -2.153000000    -3.275000000     8.144000000
H    -2.158000000    -4.445000000     9.104000000
O    -1.435000000    -7.905000000     1.907000000
H    -1.098000000    -7.029000000     2.092000000
H    -1.502000000    -7.941000000     0.953000000
O    -2.527000000    -5.293000000     1.656000000
H    -2.959000000    -4.490000000     1.948000000
H    -1.694000000    -5.301000000     2.127000000
O     1.621000000    -2.354000000     1.709000000
H     1.988000000    -2.774000000     0.931000000
H     1.178000000    -1.575000000     1.373000000
O    -3.138000000     0.276000000     8.649000000
H    -2.412000000     0.042000000     8.072000000
H    -3.454000000    -0.562000000     8.989000000
O    -8.334000000    -3.025000000     3.032000000
H    -8.460000000    -3.244000000     3.955000000
H    -7.655000000    -2.350000000     3.037000000
O    -7.379000000    -1.333000000     5.379000000
H    -6.701000000    -1.987000000     5.207000000
H    -7.922000000    -1.725000000     6.063000000
O    -1.855000000    -1.738000000     6.907000000
H    -1.906000000    -1.917000000     5.968000000
H    -0.961000000    -1.979000000     7.148000000
O    -4.526000000    -2.430000000     7.085000000
H    -3.644000000    -2.203000000     6.789000000
H    -4.999000000    -2.651000000     6.283000000
O    -4.053000000    -7.366000000     0.040000000
H    -3.627000000    -6.555000000     0.317000000
H    -4.931000000    -7.097000000    -0.228000000
O    -4.427000000    -7.247000000     3.868000000
H    -4.418000000    -7.089000000     2.924000000
H    -3.897000000    -6.539000000     4.234000000
O     0.945000000    -2.617000000     6.709000000
H     0.851000000    -2.635000000     5.757000000
H     0.644000000    -3.480000000     6.995000000
O     0.365000000    -3.157000000     3.928000000
H    -0.488000000    -2.770000000     3.727000000
H     0.934000000    -2.865000000     3.217000000
O    -6.575000000    -5.592000000     5.400000000
H    -5.836000000    -5.461000000     5.995000000
H    -6.856000000    -6.493000000     5.563000000
O    -0.578000000    -5.583000000     3.547000000
H    -0.281000000    -4.673000000     3.533000000
H    -1.350000000    -5.574000000     4.113000000
O    -5.643000000    -3.244000000     4.473000000
H    -5.915000000    -4.161000000     4.522000000
H    -4.782000000    -3.271000000     4.057000000
O    -4.732000000    -5.706000000     7.208000000
H    -4.622000000    -5.108000000     7.947000000
H    -4.805000000    -6.572000000     7.609000000
O    -5.376000000    -4.386000000     0.949000000
H    -4.921000000    -3.719000000     1.462000000
H    -6.250000000    -4.431000000     1.336000000
