201
-1224.75848
C    -4.259000000     2.480000000     1.338000000
H    -4.526000000     2.279000000     0.304000000
C    -3.059000000     3.096000000     1.648000000
C    -2.747000000     3.109000000     3.043000000
H    -1.754000000     3.459000000     3.316000000
C    -2.045000000     3.646000000     0.615000000
O    -2.641000000     4.146000000    -0.585000000
H    -1.448000000     2.751000000     0.386000000
O    -1.172000000     4.713000000     1.124000000
C     0.198000000     4.603000000     0.812000000
C     1.025000000     4.111000000     1.805000000
H     0.764000000     3.880000000     2.835000000
C     2.288000000     3.722000000     1.468000000
O     2.930000000     3.005000000     2.438000000
C     2.824000000     3.987000000     0.201000000
C     4.281000000     3.583000000    -0.210000000
H     4.582000000     4.262000000    -1.011000000
C     4.391000000     2.100000000    -0.668000000
C     4.418000000     1.700000000    -1.987000000
H     4.389000000     2.413000000    -2.807000000
H     4.936000000     3.783000000     0.640000000
C     2.004000000     4.569000000    -0.796000000
H     2.400000000     4.750000000    -1.792000000
C     0.686000000     4.892000000    -0.456000000
C    -0.187000000     5.444000000    -1.634000000
H     0.428000000     5.980000000    -2.359000000
H    -0.871000000     6.203000000    -1.247000000
C    -0.921000000     4.352000000    -2.321000000
C    -0.375000000     3.672000000    -3.381000000
H     0.651000000     3.909000000    -3.648000000
C    -2.140000000     3.821000000    -1.807000000
C    -2.791000000     2.801000000    -2.428000000
H    -3.777000000     2.412000000    -2.186000000
C    -2.228000000     2.270000000    -3.531000000
O    -2.895000000     1.108000000    -3.984000000
C    -2.392000000    -0.196000000    -3.555000000
C    -3.515000000    -1.178000000    -3.272000000
C    -3.271000000    -2.577000000    -3.117000000
H    -2.242000000    -2.897000000    -3.259000000
C    -4.867000000    -0.733000000    -2.838000000
H    -5.150000000     0.317000000    -2.836000000
O    -1.571000000    -0.707000000    -4.669000000
H    -1.861000000    -0.077000000    -2.599000000
C    -0.980000000     2.651000000    -4.033000000
C    -0.338000000     1.887000000    -5.220000000
H     0.240000000     2.660000000    -5.732000000
H    -1.079000000     1.568000000    -5.956000000
C     0.441000000     0.683000000    -4.724000000
C     1.769000000     0.787000000    -4.480000000
H     2.315000000     1.723000000    -4.562000000
C    -0.212000000    -0.552000000    -4.564000000
C     0.582000000    -1.589000000    -4.088000000
H     0.131000000    -2.524000000    -3.765000000
C     1.915000000    -1.414000000    -3.695000000
O     2.545000000    -2.534000000    -3.152000000
C     2.836000000    -2.414000000    -1.736000000
C     2.496000000    -3.741000000    -0.977000000
C     1.637000000    -4.644000000    -1.543000000
H     1.100000000    -4.452000000    -2.468000000
C     3.053000000    -3.959000000     0.288000000
H     3.521000000    -3.121000000     0.798000000
O     4.201000000    -1.973000000    -1.619000000
H     2.145000000    -1.652000000    -1.346000000
C     2.542000000    -0.288000000    -3.985000000
C     4.059000000    -0.028000000    -3.837000000
H     4.430000000     0.794000000    -4.454000000
H     4.633000000    -0.898000000    -4.162000000
C     4.327000000     0.389000000    -2.433000000
C     4.432000000    -0.595000000    -1.395000000
C     4.554000000    -0.234000000    -0.052000000
H     4.726000000    -0.933000000     0.763000000
C     4.448000000     1.111000000     0.368000000
O     4.398000000     1.536000000     1.624000000
C     3.198000000     1.599000000     2.204000000
H     2.412000000     1.228000000     1.529000000
C     3.225000000     0.802000000     3.512000000
C     2.104000000     0.950000000     4.286000000
H     1.272000000     1.559000000     3.942000000
C     4.156000000    -0.156000000     3.814000000
H     4.946000000    -0.277000000     3.077000000
C     3.974000000    -0.955000000     4.990000000
O     4.839000000    -2.027000000     5.291000000
C     2.869000000    -0.718000000     5.839000000
H     2.794000000    -1.364000000     6.711000000
C     1.895000000     0.230000000     5.484000000
O     0.695000000     0.373000000     6.210000000
C    -0.099000000     1.486000000     6.223000000
C    -1.376000000     1.476000000     5.764000000
H    -1.750000000     0.529000000     5.383000000
C     0.605000000     2.581000000     6.743000000
H     1.619000000     2.472000000     7.117000000
C    -0.093000000     3.811000000     6.820000000
H     0.378000000     4.688000000     7.258000000
C    -1.415000000     3.889000000     6.365000000
H    -2.005000000     4.801000000     6.323000000
C    -2.035000000     2.668000000     5.857000000
O    -3.305000000     2.779000000     5.400000000
C    -3.593000000     2.620000000     4.038000000
C    -4.755000000     2.039000000     3.616000000
H    -5.419000000     1.598000000     4.356000000
C    -5.086000000     1.992000000     2.313000000
O    -6.326000000     1.312000000     2.015000000
C    -6.847000000     1.256000000     0.748000000
C    -6.679000000     0.078000000     0.022000000
H    -6.098000000    -0.730000000     0.461000000
C    -7.497000000     2.356000000     0.139000000
H    -7.686000000     3.283000000     0.675000000
C    -8.067000000     2.169000000    -1.146000000
H    -8.544000000     3.039000000    -1.588000000
C    -7.877000000     1.028000000    -1.891000000
H    -8.098000000     0.990000000    -2.954000000
C    -7.224000000    -0.044000000    -1.259000000
O    -6.997000000    -1.233000000    -1.960000000
C    -5.763000000    -1.643000000    -2.340000000
C    -5.502000000    -2.991000000    -2.436000000
H    -6.235000000    -3.713000000    -2.085000000
C    -4.245000000    -3.462000000    -2.734000000
O    -3.916000000    -4.772000000    -2.448000000
C    -2.668000000    -5.322000000    -2.848000000
C    -1.715000000    -5.661000000    -1.914000000
H    -1.929000000    -5.346000000    -0.896000000
C    -2.415000000    -5.690000000    -4.179000000
H    -3.221000000    -5.459000000    -4.871000000
C    -1.189000000    -6.260000000    -4.590000000
H    -0.977000000    -6.403000000    -5.647000000
C    -0.282000000    -6.650000000    -3.595000000
H     0.596000000    -7.242000000    -3.840000000
C    -0.535000000    -6.260000000    -2.291000000
O     0.403000000    -6.624000000    -1.348000000
C     1.283000000    -5.754000000    -0.809000000
C     1.895000000    -6.057000000     0.463000000
H     1.551000000    -6.835000000     1.138000000
C     2.859000000    -5.158000000     0.999000000
O     3.462000000    -5.394000000     2.235000000
C     4.464000000    -4.598000000     2.796000000
C     5.815000000    -4.801000000     2.493000000
H     6.127000000    -5.463000000     1.690000000
C     6.807000000    -4.044000000     3.127000000
H     7.846000000    -4.266000000     2.901000000
C     6.439000000    -3.100000000     4.031000000
H     7.241000000    -2.479000000     4.421000000
C     5.135000000    -2.913000000     4.379000000
C     4.100000000    -3.637000000     3.763000000
H     3.064000000    -3.329000000     3.880000000
O    -3.567000000    -3.264000000     7.486000000
H    -3.484000000    -2.785000000     6.661000000
H    -4.321000000    -3.839000000     7.354000000
O    -1.539000000    -7.875000000     0.678000000
H    -1.030000000    -7.646000000    -0.100000000
H    -1.397000000    -8.815000000     0.788000000
O    -3.727000000    -6.215000000     1.824000000
H    -3.085000000    -6.730000000     1.335000000
H    -3.325000000    -5.351000000     1.912000000
O     0.457000000    -3.358000000     2.270000000
H     0.477000000    -2.409000000     2.390000000
H     1.124000000    -3.529000000     1.606000000
O    -3.687000000    -0.231000000     8.257000000
H    -4.199000000    -0.396000000     7.466000000
H    -3.709000000    -1.060000000     8.735000000
O    -5.841000000    -2.118000000     2.800000000
H    -5.075000000    -2.644000000     2.572000000
H    -6.042000000    -1.628000000     2.003000000
O    -6.869000000    -0.959000000     5.351000000
H    -6.875000000    -1.819000000     4.930000000
H    -7.350000000    -0.393000000     4.748000000
O    -0.087000000    -2.558000000     5.269000000
H    -0.910000000    -2.420000000     4.798000000
H     0.116000000    -3.483000000     5.129000000
O    -3.855000000    -0.933000000     5.500000000
H    -3.320000000    -1.397000000     4.855000000
H    -4.740000000    -0.955000000     5.137000000
O    -0.754000000    -1.220000000     8.051000000
H    -0.201000000    -0.898000000     7.339000000
H    -1.643000000    -1.182000000     7.700000000
O    -5.574000000    -7.074000000    -0.790000000
H    -5.504000000    -6.142000000    -0.581000000
H    -6.471000000    -7.306000000    -0.549000000
O    -8.440000000    -2.176000000     1.960000000
H    -7.679000000    -2.265000000     2.534000000
H    -8.340000000    -2.880000000     1.319000000
O    -4.728000000    -7.888000000     3.819000000
H    -4.378000000    -7.286000000     3.163000000
H    -3.954000000    -8.251000000     4.249000000
O     0.235000000    -5.311000000     3.919000000
H    -0.046000000    -5.934000000     3.249000000
H     0.175000000    -4.457000000     3.492000000
O    -6.539000000    -4.312000000     6.198000000
H    -5.853000000    -4.458000000     5.546000000
H    -6.161000000    -4.629000000     7.018000000
O    -1.443000000    -5.424000000     6.373000000
H    -1.955000000    -5.638000000     5.593000000
H    -1.687000000    -4.522000000     6.580000000
O    -3.842000000    -4.595000000     4.854000000
H    -3.974000000    -4.970000000     3.984000000
H    -3.509000000    -3.714000000     4.688000000
O    -7.618000000    -4.539000000     0.384000000
H    -6.685000000    -4.353000000     0.285000000
H    -7.663000000    -5.489000000     0.493000000
O    -4.996000000    -4.422000000     0.198000000
H    -4.343000000    -3.904000000     0.669000000
H    -4.957000000    -5.286000000     0.608000000
