201
-1242.51923
C    -4.003000000     2.549000000     1.705000000
H    -4.226000000     2.561000000     0.641000000
C    -2.889000000     3.261000000     2.109000000
C    -2.523000000     3.355000000     3.470000000
H    -1.682000000     3.899000000     3.892000000
C    -1.830000000     3.690000000     1.015000000
O    -2.356000000     4.476000000    -0.034000000
H    -1.394000000     2.812000000     0.517000000
O    -0.851000000     4.603000000     1.569000000
C     0.459000000     4.319000000     1.236000000
C     1.333000000     3.590000000     2.081000000
H     0.944000000     3.399000000     3.078000000
C     2.662000000     3.381000000     1.725000000
O     3.429000000     2.689000000     2.600000000
C     3.122000000     3.716000000     0.441000000
C     4.572000000     3.395000000    -0.019000000
H     4.800000000     4.100000000    -0.821000000
C     4.707000000     1.934000000    -0.534000000
C     4.611000000     1.611000000    -1.889000000
H     4.585000000     2.498000000    -2.516000000
H     5.320000000     3.656000000     0.732000000
C     2.255000000     4.336000000    -0.425000000
H     2.397000000     4.397000000    -1.501000000
C     0.978000000     4.804000000     0.035000000
C     0.167000000     5.559000000    -1.027000000
H     0.887000000     6.038000000    -1.694000000
H    -0.421000000     6.253000000    -0.423000000
C    -0.760000000     4.614000000    -1.820000000
C    -0.252000000     4.097000000    -3.015000000
H     0.732000000     4.324000000    -3.416000000
C    -1.970000000     4.157000000    -1.344000000
C    -2.635000000     3.148000000    -1.908000000
H    -3.587000000     2.814000000    -1.504000000
C    -2.138000000     2.637000000    -3.122000000
O    -2.825000000     1.540000000    -3.576000000
C    -2.368000000     0.194000000    -3.373000000
C    -3.517000000    -0.726000000    -3.180000000
C    -3.344000000    -2.129000000    -3.578000000
H    -2.395000000    -2.586000000    -3.848000000
C    -4.718000000    -0.349000000    -2.640000000
H    -4.857000000     0.726000000    -2.562000000
O    -1.667000000    -0.256000000    -4.536000000
H    -1.791000000     0.147000000    -2.437000000
C    -0.992000000     3.055000000    -3.709000000
C    -0.418000000     2.385000000    -4.974000000
H     0.175000000     3.084000000    -5.567000000
H    -1.297000000     2.228000000    -5.602000000
C     0.372000000     1.093000000    -4.684000000
C     1.745000000     1.153000000    -4.426000000
H     2.240000000     2.081000000    -4.702000000
C    -0.270000000    -0.114000000    -4.472000000
C     0.434000000    -1.220000000    -4.061000000
H    -0.029000000    -2.203000000    -4.020000000
C     1.793000000    -1.130000000    -3.779000000
O     2.376000000    -2.302000000    -3.364000000
C     2.771000000    -2.392000000    -1.983000000
C     2.525000000    -3.815000000    -1.489000000
C     1.284000000    -4.359000000    -1.851000000
H     0.523000000    -3.770000000    -2.356000000
C     3.143000000    -4.434000000    -0.430000000
H     3.966000000    -3.928000000     0.068000000
O     4.135000000    -1.990000000    -1.854000000
H     2.094000000    -1.682000000    -1.486000000
C     2.551000000     0.009000000    -4.065000000
C     4.044000000     0.147000000    -3.807000000
H     4.386000000     0.979000000    -4.427000000
H     4.630000000    -0.689000000    -4.195000000
C     4.369000000     0.371000000    -2.351000000
C     4.356000000    -0.684000000    -1.466000000
C     4.611000000    -0.461000000    -0.145000000
H     4.437000000    -1.297000000     0.528000000
C     4.775000000     0.841000000     0.347000000
O     4.851000000     1.035000000     1.700000000
C     3.550000000     1.272000000     2.325000000
H     2.799000000     0.956000000     1.585000000
C     3.341000000     0.384000000     3.515000000
C     2.258000000     0.592000000     4.356000000
H     1.572000000     1.407000000     4.141000000
C     4.046000000    -0.832000000     3.653000000
H     4.757000000    -1.188000000     2.913000000
C     3.579000000    -1.795000000     4.594000000
O     4.225000000    -3.032000000     4.694000000
C     2.475000000    -1.637000000     5.359000000
H     2.119000000    -2.347000000     6.101000000
C     1.880000000    -0.343000000     5.370000000
O     0.742000000    -0.105000000     6.098000000
C     0.155000000     1.101000000     6.414000000
C    -1.170000000     1.345000000     6.029000000
H    -1.641000000     0.593000000     5.401000000
C     0.801000000     2.094000000     7.126000000
H     1.820000000     1.983000000     7.489000000
C     0.251000000     3.383000000     7.317000000
H     0.819000000     4.079000000     7.928000000
C    -1.090000000     3.602000000     7.002000000
H    -1.639000000     4.526000000     7.166000000
C    -1.756000000     2.586000000     6.302000000
O    -3.022000000     2.826000000     5.755000000
C    -3.426000000     2.774000000     4.425000000
C    -4.682000000     2.333000000     3.981000000
H    -5.373000000     1.950000000     4.728000000
C    -4.939000000     2.105000000     2.638000000
O    -6.042000000     1.456000000     2.191000000
C    -6.623000000     1.538000000     0.948000000
C    -6.450000000     0.499000000     0.042000000
H    -5.647000000    -0.218000000     0.193000000
C    -7.684000000     2.439000000     0.725000000
H    -7.819000000     3.195000000     1.494000000
C    -8.386000000     2.368000000    -0.465000000
H    -9.152000000     3.086000000    -0.747000000
C    -8.019000000     1.424000000    -1.438000000
H    -8.492000000     1.334000000    -2.413000000
C    -7.070000000     0.441000000    -1.178000000
O    -6.912000000    -0.690000000    -1.937000000
C    -5.780000000    -1.208000000    -2.438000000
C    -5.598000000    -2.520000000    -2.700000000
H    -6.338000000    -3.297000000    -2.526000000
C    -4.387000000    -2.955000000    -3.251000000
O    -4.331000000    -4.266000000    -3.467000000
C    -3.119000000    -4.889000000    -3.677000000
C    -2.410000000    -5.285000000    -2.556000000
H    -2.824000000    -5.258000000    -1.551000000
C    -2.532000000    -4.928000000    -4.933000000
H    -3.223000000    -4.601000000    -5.707000000
C    -1.293000000    -5.468000000    -5.181000000
H    -1.004000000    -5.695000000    -6.204000000
C    -0.581000000    -5.939000000    -4.043000000
H     0.424000000    -6.340000000    -4.147000000
C    -1.102000000    -5.775000000    -2.805000000
O    -0.393000000    -6.126000000    -1.687000000
C     0.840000000    -5.588000000    -1.336000000
C     1.575000000    -6.184000000    -0.372000000
H     1.212000000    -7.146000000    -0.020000000
C     2.700000000    -5.623000000     0.131000000
O     3.329000000    -6.172000000     1.207000000
C     4.242000000    -5.400000000     1.947000000
C     5.635000000    -5.609000000     1.883000000
H     6.088000000    -6.280000000     1.158000000
C     6.552000000    -4.926000000     2.746000000
H     7.612000000    -5.088000000     2.569000000
C     6.071000000    -4.028000000     3.722000000
H     6.755000000    -3.489000000     4.371000000
C     4.672000000    -3.823000000     3.747000000
C     3.808000000    -4.487000000     2.880000000
H     2.732000000    -4.340000000     2.932000000
O    -6.338000000    -3.934000000     7.701000000
H    -6.122000000    -3.468000000     6.894000000
H    -5.495000000    -4.244000000     8.032000000
O    -1.435000000    -7.192000000     2.924000000
H    -1.612000000    -7.764000000     3.670000000
H    -2.210000000    -6.633000000     2.861000000
O    -0.865000000    -3.089000000     3.430000000
H    -1.128000000    -3.215000000     4.342000000
H    -0.480000000    -2.212000000     3.412000000
O    -6.774000000    -5.382000000     2.907000000
H    -6.942000000    -4.441000000     2.959000000
H    -7.012000000    -5.716000000     3.772000000
O    -5.624000000    -5.254000000     0.587000000
H    -5.316000000    -4.365000000     0.761000000
H    -5.836000000    -5.608000000     1.451000000
O    -6.870000000    -1.924000000     2.865000000
H    -6.003000000    -2.305000000     2.727000000
H    -7.204000000    -1.762000000     1.983000000
O    -2.219000000    -2.714000000     5.632000000
H    -2.922000000    -2.460000000     5.034000000
H    -2.336000000    -2.146000000     6.394000000
O    -5.714000000     0.071000000     6.249000000
H    -5.885000000     0.091000000     5.307000000
H    -5.827000000    -0.848000000     6.493000000
O    -1.600000000    -1.323000000     8.054000000
H    -0.900000000    -0.717000000     7.812000000
H    -1.159000000    -2.014000000     8.548000000
O    -1.657000000    -8.079000000     0.197000000
H    -1.524000000    -7.271000000     0.692000000
H    -2.397000000    -7.888000000    -0.379000000
O    -8.186000000    -2.714000000     0.584000000
H    -8.028000000    -3.304000000    -0.153000000
H    -9.054000000    -2.960000000     0.906000000
O    -5.910000000    -2.449000000     5.475000000
H    -6.681000000    -2.514000000     4.911000000
H    -5.169000000    -2.451000000     4.870000000
O     0.538000000    -5.604000000     3.857000000
H     0.115000000    -6.337000000     3.410000000
H    -0.061000000    -4.868000000     3.732000000
O    -5.110000000    -8.092000000     2.863000000
H    -5.658000000    -8.594000000     2.259000000
H    -5.587000000    -7.272000000     2.993000000
O    -2.453000000    -5.529000000     6.372000000
H    -2.838000000    -5.504000000     7.248000000
H    -2.690000000    -4.688000000     5.981000000
O    -3.061000000    -5.089000000     3.255000000
H    -2.466000000    -4.340000000     3.225000000
H    -3.890000000    -4.751000000     2.916000000
O    -8.292000000    -5.104000000    -0.882000000
H    -7.476000000    -5.366000000    -0.455000000
H    -8.969000000    -5.267000000    -0.225000000
O    -8.083000000     0.235000000     3.834000000
H    -7.661000000     0.940000000     3.343000000
H    -7.570000000    -0.545000000     3.620000000
O    -4.603000000    -7.425000000    -1.029000000
H    -4.860000000    -6.972000000    -1.831000000
H    -5.013000000    -6.920000000    -0.326000000
