201
-1243.21488
C    -3.345000000     2.469000000     2.714000000
H    -3.441000000     2.632000000     1.643000000
C    -2.218000000     2.902000000     3.338000000
C    -2.120000000     2.627000000     4.744000000
H    -1.297000000     3.047000000     5.316000000
C    -1.079000000     3.447000000     2.521000000
O    -1.452000000     4.574000000     1.679000000
H    -0.826000000     2.614000000     1.850000000
O     0.018000000     3.721000000     3.393000000
C     1.292000000     3.253000000     3.063000000
C     1.924000000     2.189000000     3.687000000
H     1.452000000     1.608000000     4.475000000
C     3.091000000     1.716000000     3.202000000
O     3.408000000     0.510000000     3.642000000
C     3.751000000     2.345000000     2.132000000
C     5.069000000     1.688000000     1.710000000
H     5.630000000     2.509000000     1.259000000
C     4.866000000     0.671000000     0.625000000
C     4.874000000     1.084000000    -0.695000000
H     4.956000000     2.142000000    -0.929000000
H     5.635000000     1.263000000     2.542000000
C     3.176000000     3.453000000     1.534000000
H     3.700000000     4.088000000     0.824000000
C     1.954000000     3.853000000     1.959000000
C     1.309000000     5.102000000     1.408000000
H     2.212000000     5.622000000     1.079000000
H     0.791000000     5.755000000     2.114000000
C     0.431000000     4.844000000     0.197000000
C     0.931000000     4.929000000    -1.104000000
H     1.956000000     5.247000000    -1.277000000
C    -0.899000000     4.560000000     0.401000000
C    -1.756000000     4.214000000    -0.640000000
H    -2.790000000     3.921000000    -0.478000000
C    -1.209000000     4.057000000    -1.911000000
O    -2.114000000     3.392000000    -2.778000000
C    -1.863000000     2.008000000    -3.187000000
C    -3.065000000     1.142000000    -3.371000000
C    -2.985000000     0.098000000    -4.292000000
H    -2.024000000    -0.208000000    -4.698000000
C    -4.244000000     1.403000000    -2.669000000
H    -4.260000000     2.094000000    -1.829000000
O    -0.972000000     2.031000000    -4.363000000
H    -1.256000000     1.602000000    -2.364000000
C     0.137000000     4.419000000    -2.157000000
C     0.735000000     4.172000000    -3.583000000
H     1.521000000     4.927000000    -3.657000000
H    -0.080000000     4.323000000    -4.295000000
C     1.267000000     2.707000000    -3.746000000
C     2.620000000     2.365000000    -3.436000000
H     3.345000000     3.074000000    -3.043000000
C     0.356000000     1.737000000    -4.170000000
C     0.830000000     0.425000000    -4.267000000
H     0.097000000    -0.348000000    -4.486000000
C     2.168000000     0.101000000    -3.957000000
O     2.622000000    -1.144000000    -4.088000000
C     2.589000000    -1.916000000    -2.900000000
C     1.895000000    -3.263000000    -3.133000000
C     1.121000000    -3.519000000    -4.282000000
H     0.900000000    -2.708000000    -4.970000000
C     2.132000000    -4.292000000    -2.243000000
H     2.733000000    -4.135000000    -1.351000000
O     3.974000000    -2.041000000    -2.392000000
H     2.065000000    -1.304000000    -2.153000000
C     3.096000000     1.094000000    -3.574000000
C     4.595000000     0.676000000    -3.183000000
H     5.236000000     1.559000000    -3.223000000
H     4.915000000    -0.023000000    -3.959000000
C     4.645000000     0.171000000    -1.743000000
C     4.353000000    -1.165000000    -1.440000000
C     4.282000000    -1.558000000    -0.128000000
H     4.075000000    -2.592000000     0.136000000
C     4.571000000    -0.661000000     0.883000000
O     4.317000000    -1.080000000     2.145000000
C     3.109000000    -0.544000000     2.650000000
H     2.505000000    -0.085000000     1.854000000
C     2.183000000    -1.542000000     3.212000000
C     1.619000000    -1.317000000     4.518000000
H     1.859000000    -0.450000000     5.128000000
C     1.741000000    -2.610000000     2.475000000
H     2.076000000    -2.697000000     1.445000000
C     0.917000000    -3.580000000     3.029000000
O     0.616000000    -4.719000000     2.340000000
C     0.454000000    -3.440000000     4.335000000
H    -0.192000000    -4.148000000     4.848000000
C     0.716000000    -2.285000000     5.061000000
O     0.242000000    -2.175000000     6.389000000
C    -0.165000000    -0.936000000     6.917000000
C    -1.384000000    -0.275000000     6.540000000
H    -1.980000000    -0.727000000     5.750000000
C     0.538000000    -0.434000000     8.044000000
H     1.383000000    -0.952000000     8.492000000
C     0.099000000     0.725000000     8.716000000
H     0.622000000     1.160000000     9.564000000
C    -1.100000000     1.379000000     8.300000000
H    -1.447000000     2.300000000     8.762000000
C    -1.807000000     0.861000000     7.177000000
O    -2.936000000     1.546000000     6.771000000
C    -3.079000000     1.814000000     5.432000000
C    -4.210000000     1.450000000     4.705000000
H    -4.937000000     0.820000000     5.211000000
C    -4.331000000     1.768000000     3.378000000
O    -5.457000000     1.236000000     2.723000000
C    -6.058000000     1.659000000     1.611000000
C    -5.990000000     0.871000000     0.437000000
H    -5.502000000    -0.099000000     0.398000000
C    -6.534000000     2.996000000     1.456000000
H    -6.492000000     3.638000000     2.332000000
C    -7.023000000     3.437000000     0.262000000
H    -7.502000000     4.402000000     0.122000000
C    -6.891000000     2.701000000    -0.865000000
H    -7.256000000     3.040000000    -1.831000000
C    -6.439000000     1.390000000    -0.796000000
O    -6.413000000     0.642000000    -1.925000000
C    -5.285000000     0.460000000    -2.700000000
C    -5.193000000    -0.611000000    -3.622000000
H    -6.038000000    -1.289000000    -3.531000000
C    -4.025000000    -0.822000000    -4.359000000
O    -3.940000000    -2.015000000    -5.053000000
C    -2.926000000    -2.453000000    -5.827000000
C    -2.099000000    -3.469000000    -5.347000000
H    -2.361000000    -3.951000000    -4.409000000
C    -2.596000000    -1.795000000    -7.077000000
H    -3.020000000    -0.806000000    -7.227000000
C    -1.578000000    -2.328000000    -7.842000000
H    -1.327000000    -1.834000000    -8.778000000
C    -0.824000000    -3.383000000    -7.366000000
H     0.037000000    -3.725000000    -7.935000000
C    -1.017000000    -3.906000000    -6.103000000
O    -0.099000000    -4.912000000    -5.700000000
C     0.655000000    -4.804000000    -4.590000000
C     0.873000000    -5.796000000    -3.674000000
H     0.527000000    -6.805000000    -3.884000000
C     1.600000000    -5.586000000    -2.526000000
O     1.986000000    -6.658000000    -1.732000000
C     2.224000000    -6.489000000    -0.397000000
C     3.411000000    -6.935000000     0.192000000
H     4.124000000    -7.490000000    -0.413000000
C     3.664000000    -6.568000000     1.509000000
H     4.458000000    -7.026000000     2.094000000
C     2.773000000    -5.781000000     2.171000000
H     2.975000000    -5.548000000     3.213000000
C     1.557000000    -5.350000000     1.628000000
C     1.274000000    -5.722000000     0.316000000
H     0.261000000    -5.597000000    -0.058000000
O    -8.819000000    -0.408000000    -0.600000000
H    -8.600000000    -1.338000000    -0.651000000
H    -7.976000000     0.041000000    -0.662000000
O    -7.251000000    -4.530000000    -3.248000000
H    -7.447000000    -4.330000000    -4.164000000
H    -7.774000000    -5.309000000    -3.057000000
O    -3.440000000    -9.795000000     0.716000000
H    -3.635000000    -8.942000000     1.105000000
H    -3.118000000   -10.323000000     1.447000000
O    -2.577000000    -6.475000000    -1.967000000
H    -3.433000000    -6.656000000    -1.577000000
H    -2.586000000    -5.533000000    -2.138000000
O    -4.598000000    -4.654000000    -3.005000000
H    -4.174000000    -4.403000000    -2.184000000
H    -5.527000000    -4.476000000    -2.859000000
O    -7.100000000    -2.841000000    -1.089000000
H    -6.215000000    -2.924000000    -0.735000000
H    -7.101000000    -3.400000000    -1.865000000
O    -3.201000000    -4.814000000     3.559000000
H    -3.433000000    -4.204000000     2.858000000
H    -2.692000000    -5.497000000     3.123000000
O    -6.374000000    -2.208000000     2.947000000
H    -6.751000000    -3.085000000     2.879000000
H    -5.544000000    -2.267000000     2.475000000
O    -6.900000000    -6.876000000    -1.115000000
H    -6.525000000    -7.687000000    -1.458000000
H    -6.175000000    -6.450000000    -0.660000000
O    -4.686000000    -6.106000000     5.649000000
H    -4.494000000    -5.487000000     4.945000000
H    -5.642000000    -6.135000000     5.688000000
O    -7.705000000     0.114000000     3.876000000
H    -6.952000000     0.600000000     4.214000000
H    -7.325000000    -0.674000000     3.486000000
O    -4.147000000    -6.049000000    -5.226000000
H    -4.328000000    -5.475000000    -4.481000000
H    -4.767000000    -6.772000000    -5.127000000
O    -0.010000000    -8.570000000     2.272000000
H    -0.278000000    -7.707000000     1.958000000
H     0.141000000    -9.079000000     1.475000000
O    -5.163000000    -5.728000000     0.907000000
H    -4.701000000    -4.953000000     0.587000000
H    -5.586000000    -5.437000000     1.716000000
O    -8.938000000    -3.075000000     1.055000000
H    -8.239000000    -3.086000000     0.402000000
H    -9.185000000    -3.994000000     1.157000000
O    -2.837000000    -7.141000000     2.121000000
H    -3.227000000    -7.474000000     2.929000000
H    -3.535000000    -6.631000000     1.711000000
O    -9.199000000    -3.831000000     3.761000000
H   -10.143000000    -3.829000000     3.916000000
H    -9.080000000    -3.264000000     2.999000000
O    -0.995000000    -8.500000000    -0.599000000
H    -1.369000000    -7.649000000    -0.829000000
H    -1.754000000    -9.052000000    -0.411000000
O    -6.916000000    -5.120000000     2.959000000
H    -7.701000000    -4.633000000     3.210000000
H    -7.053000000    -5.996000000     3.319000000
