201
-1260.94345
C    -2.861000000     2.896000000     3.736000000
H    -2.699000000     3.949000000     3.518000000
C    -1.827000000     1.912000000     3.721000000
C    -2.095000000     0.557000000     3.949000000
H    -1.273000000    -0.155000000     3.937000000
C    -0.384000000     2.288000000     3.440000000
O    -0.140000000     3.733000000     3.279000000
H    -0.118000000     1.802000000     2.490000000
O     0.570000000     1.695000000     4.416000000
C     1.721000000     1.153000000     3.886000000
C     1.919000000    -0.258000000     3.997000000
H     1.139000000    -0.828000000     4.496000000
C     2.911000000    -0.856000000     3.320000000
O     2.773000000    -2.231000000     3.342000000
C     3.917000000    -0.102000000     2.723000000
C     5.083000000    -0.775000000     2.089000000
H     5.922000000    -0.085000000     1.984000000
C     4.724000000    -1.197000000     0.678000000
C     4.956000000    -0.376000000    -0.414000000
H     5.516000000     0.547000000    -0.286000000
H     5.339000000    -1.679000000     2.645000000
C     3.838000000     1.263000000     2.826000000
H     4.698000000     1.846000000     2.506000000
C     2.759000000     1.915000000     3.429000000
C     2.736000000     3.436000000     3.376000000
H     3.744000000     3.855000000     3.385000000
H     2.245000000     3.814000000     4.276000000
C     1.992000000     3.916000000     2.144000000
C     2.699000000     4.247000000     0.978000000
H     3.732000000     3.909000000     0.997000000
C     0.562000000     4.073000000     2.209000000
C    -0.110000000     4.581000000     1.074000000
H    -1.194000000     4.639000000     1.136000000
C     0.582000000     4.923000000    -0.051000000
O    -0.191000000     5.146000000    -1.186000000
C    -0.516000000     3.923000000    -1.881000000
C    -1.975000000     3.805000000    -2.273000000
C    -2.315000000     2.916000000    -3.323000000
H    -1.481000000     2.519000000    -3.896000000
C    -2.974000000     4.339000000    -1.478000000
H    -2.763000000     5.054000000    -0.688000000
O     0.248000000     3.846000000    -3.081000000
H    -0.086000000     3.098000000    -1.293000000
C     1.926000000     4.649000000    -0.119000000
C     2.648000000     4.724000000    -1.452000000
H     3.719000000     4.844000000    -1.272000000
H     2.362000000     5.574000000    -2.075000000
C     2.541000000     3.432000000    -2.281000000
C     3.636000000     2.512000000    -2.271000000
H     4.501000000     2.765000000    -1.663000000
C     1.403000000     3.091000000    -3.012000000
C     1.316000000     1.879000000    -3.687000000
H     0.377000000     1.667000000    -4.192000000
C     2.427000000     0.963000000    -3.645000000
O     2.295000000    -0.306000000    -4.205000000
C     1.995000000    -1.425000000    -3.280000000
C     0.922000000    -2.295000000    -3.908000000
C     0.089000000    -1.777000000    -4.855000000
H     0.235000000    -0.792000000    -5.292000000
C     0.750000000    -3.601000000    -3.470000000
H     1.405000000    -3.976000000    -2.688000000
O     3.167000000    -2.213000000    -3.034000000
H     1.605000000    -1.054000000    -2.321000000
C     3.622000000     1.293000000    -2.976000000
C     4.746000000     0.305000000    -2.774000000
H     5.702000000     0.784000000    -2.549000000
H     4.881000000    -0.263000000    -3.697000000
C     4.559000000    -0.738000000    -1.673000000
C     3.827000000    -1.905000000    -1.874000000
C     3.690000000    -2.807000000    -0.853000000
H     3.292000000    -3.774000000    -1.147000000
C     4.165000000    -2.493000000     0.418000000
O     3.749000000    -3.371000000     1.391000000
C     2.559000000    -2.939000000     2.116000000
H     1.999000000    -2.285000000     1.432000000
C     1.613000000    -4.154000000     2.306000000
C     0.730000000    -4.139000000     3.382000000
H     0.848000000    -3.323000000     4.090000000
C     1.619000000    -5.179000000     1.402000000
H     2.349000000    -5.177000000     0.596000000
C     0.729000000    -6.205000000     1.554000000
O     0.819000000    -7.351000000     0.765000000
C    -0.245000000    -6.093000000     2.558000000
H    -0.999000000    -6.869000000     2.656000000
C    -0.209000000    -5.096000000     3.520000000
O    -1.004000000    -5.134000000     4.588000000
C    -1.420000000    -4.019000000     5.274000000
C    -2.291000000    -3.089000000     4.729000000
H    -2.731000000    -3.323000000     3.763000000
C    -1.007000000    -3.837000000     6.652000000
H    -0.305000000    -4.519000000     7.125000000
C    -1.350000000    -2.726000000     7.330000000
H    -0.886000000    -2.582000000     8.303000000
C    -2.155000000    -1.771000000     6.751000000
H    -2.366000000    -0.797000000     7.186000000
C    -2.656000000    -1.951000000     5.451000000
O    -3.588000000    -1.070000000     4.864000000
C    -3.332000000     0.170000000     4.387000000
C    -4.428000000     1.101000000     4.319000000
H    -5.440000000     0.775000000     4.542000000
C    -4.196000000     2.410000000     3.855000000
O    -5.250000000     3.270000000     3.784000000
C    -5.454000000     4.126000000     2.769000000
C    -5.103000000     3.839000000     1.429000000
H    -4.813000000     2.847000000     1.092000000
C    -5.807000000     5.415000000     3.160000000
H    -6.096000000     5.688000000     4.172000000
C    -5.893000000     6.393000000     2.182000000
H    -6.137000000     7.429000000     2.404000000
C    -5.747000000     6.009000000     0.834000000
H    -5.926000000     6.772000000     0.081000000
C    -5.282000000     4.782000000     0.437000000
O    -5.346000000     4.526000000    -0.920000000
C    -4.343000000     4.098000000    -1.808000000
C    -4.717000000     3.306000000    -2.877000000
H    -5.772000000     3.132000000    -3.075000000
C    -3.692000000     2.689000000    -3.634000000
O    -4.063000000     2.123000000    -4.817000000
C    -3.152000000     1.362000000    -5.528000000
C    -3.005000000     0.027000000    -5.395000000
H    -3.559000000    -0.545000000    -4.656000000
C    -2.495000000     2.009000000    -6.583000000
H    -2.541000000     3.095000000    -6.566000000
C    -1.708000000     1.327000000    -7.499000000
H    -1.199000000     1.891000000    -8.277000000
C    -1.646000000    -0.027000000    -7.400000000
H    -1.140000000    -0.610000000    -8.165000000
C    -2.207000000    -0.660000000    -6.316000000
O    -2.034000000    -1.987000000    -6.104000000
C    -1.035000000    -2.553000000    -5.283000000
C    -1.257000000    -3.815000000    -4.798000000
H    -2.118000000    -4.356000000    -5.181000000
C    -0.389000000    -4.336000000    -3.860000000
O    -0.581000000    -5.634000000    -3.405000000
C     0.318000000    -6.332000000    -2.722000000
C     1.424000000    -6.782000000    -3.398000000
H     1.605000000    -6.645000000    -4.462000000
C     2.323000000    -7.544000000    -2.640000000
H     3.177000000    -8.002000000    -3.132000000
C     2.064000000    -7.840000000    -1.292000000
H     2.778000000    -8.448000000    -0.742000000
C     0.931000000    -7.288000000    -0.659000000
C     0.147000000    -6.389000000    -1.356000000
H    -0.748000000    -5.948000000    -0.924000000
O    -7.084000000    -5.080000000    -6.151000000
H    -6.378000000    -4.806000000    -5.564000000
H    -7.727000000    -4.373000000    -6.098000000
O    -7.889000000    -2.653000000     1.805000000
H    -8.353000000    -1.887000000     1.468000000
H    -8.535000000    -3.103000000     2.351000000
O    -2.483000000    -9.308000000    -2.251000000
H    -2.791000000    -9.257000000    -3.156000000
H    -2.803000000    -8.503000000    -1.844000000
O    -7.401000000    -2.767000000    -2.655000000
H    -7.419000000    -3.324000000    -3.434000000
H    -6.714000000    -3.145000000    -2.107000000
O    -6.531000000    -0.956000000    -4.521000000
H    -5.889000000    -0.772000000    -3.836000000
H    -7.120000000    -1.601000000    -4.131000000
O    -3.605000000    -5.832000000    -3.447000000
H    -4.216000000    -5.352000000    -2.887000000
H    -2.750000000    -5.701000000    -3.037000000
O    -6.150000000    -4.559000000    -0.825000000
H    -5.212000000    -4.393000000    -0.917000000
H    -6.285000000    -4.655000000     0.117000000
O    -4.937000000    -0.815000000    -2.353000000
H    -4.676000000    -0.402000000    -1.529000000
H    -4.430000000    -1.625000000    -2.387000000
O    -5.275000000    -1.808000000     2.187000000
H    -4.751000000    -2.567000000     2.441000000
H    -6.145000000    -2.166000000     2.010000000
O    -7.187000000     0.983000000    -1.229000000
H    -6.314000000     0.600000000    -1.145000000
H    -7.762000000     0.373000000    -0.767000000
O    -4.167000000     0.200000000     0.007000000
H    -3.224000000     0.038000000     0.019000000
H    -4.499000000    -0.260000000     0.777000000
O    -6.555000000    -5.904000000     2.026000000
H    -6.180000000    -6.781000000     2.113000000
H    -7.243000000    -5.871000000     2.691000000
O    -5.746000000    -8.668000000    -0.758000000
H    -5.639000000    -9.503000000    -1.214000000
H    -4.869000000    -8.285000000    -0.750000000
O    -4.828000000    -3.913000000    -4.901000000
H    -4.228000000    -4.606000000    -4.624000000
H    -4.682000000    -3.205000000    -4.274000000
O    -4.023000000    -4.524000000     2.267000000
H    -4.859000000    -4.972000000     2.391000000
H    -3.834000000    -4.623000000     1.333000000
O    -4.197000000    -8.306000000    -4.559000000
H    -4.111000000    -7.426000000    -4.193000000
H    -5.034000000    -8.292000000    -5.023000000
O    -3.265000000    -7.198000000    -0.743000000
H    -3.339000000    -6.284000000    -0.469000000
H    -3.124000000    -7.681000000     0.072000000
O    -4.051000000    -7.576000000     2.595000000
H    -3.473000000    -6.936000000     2.179000000
H    -3.578000000    -8.405000000     2.529000000
O    -8.127000000    -6.958000000    -0.988000000
H    -7.265000000    -7.366000000    -0.902000000
H    -7.940000000    -6.048000000    -1.216000000
