201
-1247.34609
C    -2.580000000     1.954000000     4.231000000
H    -2.816000000     2.699000000     3.476000000
C    -1.229000000     1.518000000     4.335000000
C    -1.005000000     0.486000000     5.254000000
H    -0.009000000     0.107000000     5.468000000
C    -0.129000000     2.098000000     3.528000000
O    -0.338000000     3.557000000     3.373000000
H    -0.183000000     1.560000000     2.570000000
O     1.116000000     1.873000000     4.264000000
C     2.262000000     1.550000000     3.504000000
C     2.658000000     0.244000000     3.448000000
H     2.068000000    -0.525000000     3.941000000
C     3.726000000    -0.142000000     2.673000000
O     3.921000000    -1.433000000     2.562000000
C     4.269000000     0.811000000     1.845000000
C     5.335000000     0.345000000     0.871000000
H     6.068000000     1.139000000     0.715000000
C     4.782000000    -0.088000000    -0.455000000
C     4.711000000     0.817000000    -1.516000000
H     5.051000000     1.817000000    -1.257000000
H     5.972000000    -0.489000000     1.174000000
C     3.934000000     2.172000000     1.909000000
H     4.359000000     2.790000000     1.122000000
C     2.976000000     2.544000000     2.813000000
C     2.553000000     3.986000000     2.834000000
H     3.403000000     4.622000000     2.578000000
H     2.292000000     4.308000000     3.844000000
C     1.390000000     4.294000000     1.851000000
C     1.725000000     4.711000000     0.536000000
H     2.756000000     4.682000000     0.191000000
C     0.017000000     4.090000000     2.143000000
C    -0.908000000     4.207000000     1.161000000
H    -1.903000000     3.857000000     1.424000000
C    -0.605000000     4.688000000    -0.119000000
O    -1.539000000     4.737000000    -1.057000000
C    -1.718000000     3.417000000    -1.766000000
C    -3.167000000     3.038000000    -1.807000000
C    -3.539000000     2.148000000    -2.830000000
H    -2.810000000     1.986000000    -3.620000000
C    -4.133000000     3.284000000    -0.794000000
H    -3.872000000     3.949000000     0.026000000
O    -1.133000000     3.633000000    -3.080000000
H    -1.160000000     2.591000000    -1.302000000
C     0.746000000     4.970000000    -0.389000000
C     1.138000000     5.180000000    -1.870000000
H     2.105000000     5.682000000    -1.942000000
H     0.357000000     5.784000000    -2.338000000
C     1.301000000     3.870000000    -2.634000000
C     2.535000000     3.226000000    -2.818000000
H     3.407000000     3.647000000    -2.326000000
C     0.156000000     3.279000000    -3.272000000
C     0.221000000     2.189000000    -4.074000000
H    -0.632000000     1.798000000    -4.622000000
C     1.454000000     1.575000000    -4.252000000
O     1.404000000     0.368000000    -4.889000000
C     1.517000000    -0.768000000    -4.010000000
C     0.691000000    -1.901000000    -4.525000000
C    -0.521000000    -1.729000000    -5.172000000
H    -0.928000000    -0.728000000    -5.290000000
C     1.105000000    -3.288000000    -4.317000000
H     1.986000000    -3.432000000    -3.697000000
O     2.897000000    -1.177000000    -3.986000000
H     1.203000000    -0.555000000    -2.977000000
C     2.631000000     2.135000000    -3.724000000
C     3.995000000     1.413000000    -3.836000000
H     4.780000000     2.172000000    -3.845000000
H     4.065000000     0.942000000    -4.818000000
C     4.188000000     0.455000000    -2.712000000
C     3.606000000    -0.812000000    -2.913000000
C     3.660000000    -1.785000000    -1.819000000
H     3.257000000    -2.793000000    -1.874000000
C     4.277000000    -1.416000000    -0.653000000
O     4.281000000    -2.313000000     0.371000000
C     3.276000000    -2.114000000     1.466000000
H     2.540000000    -1.407000000     1.057000000
C     2.577000000    -3.397000000     1.872000000
C     2.238000000    -3.553000000     3.259000000
H     2.652000000    -2.833000000     3.960000000
C     2.022000000    -4.226000000     0.921000000
H     2.163000000    -3.998000000    -0.132000000
C     1.181000000    -5.331000000     1.304000000
O     0.649000000    -6.161000000     0.312000000
C     0.950000000    -5.565000000     2.671000000
H     0.242000000    -6.315000000     3.017000000
C     1.348000000    -4.574000000     3.614000000
O     1.056000000    -4.876000000     4.896000000
C     0.866000000    -3.817000000     5.829000000
C    -0.290000000    -2.977000000     5.731000000
H    -0.966000000    -3.149000000     4.897000000
C     1.789000000    -3.692000000     6.857000000
H     2.724000000    -4.247000000     6.860000000
C     1.533000000    -2.783000000     7.870000000
H     2.229000000    -2.818000000     8.704000000
C     0.326000000    -1.985000000     7.820000000
H     0.253000000    -1.229000000     8.598000000
C    -0.553000000    -2.046000000     6.747000000
O    -1.771000000    -1.247000000     6.773000000
C    -2.061000000    -0.092000000     6.032000000
C    -3.351000000     0.313000000     5.788000000
H    -4.200000000    -0.070000000     6.350000000
C    -3.588000000     1.393000000     4.962000000
O    -4.847000000     1.851000000     4.734000000
C    -5.285000000     2.811000000     3.838000000
C    -5.569000000     2.321000000     2.509000000
H    -5.406000000     1.285000000     2.224000000
C    -5.596000000     4.077000000     4.227000000
H    -5.401000000     4.447000000     5.231000000
C    -6.211000000     4.980000000     3.304000000
H    -6.415000000     6.016000000     3.560000000
C    -6.391000000     4.519000000     1.940000000
H    -6.816000000     5.221000000     1.227000000
C    -6.037000000     3.230000000     1.561000000
O    -6.271000000     2.928000000     0.229000000
C    -5.326000000     2.642000000    -0.790000000
C    -5.641000000     1.727000000    -1.780000000
H    -6.567000000     1.157000000    -1.773000000
C    -4.771000000     1.468000000    -2.834000000
O    -5.109000000     0.568000000    -3.855000000
C    -4.315000000     0.211000000    -4.869000000
C    -3.884000000    -1.117000000    -5.037000000
H    -4.143000000    -1.780000000    -4.215000000
C    -4.113000000     1.137000000    -5.930000000
H    -4.505000000     2.151000000    -5.912000000
C    -3.419000000     0.760000000    -7.101000000
H    -3.335000000     1.445000000    -7.941000000
C    -2.949000000    -0.572000000    -7.184000000
H    -2.343000000    -0.871000000    -8.036000000
C    -3.119000000    -1.450000000    -6.184000000
O    -2.450000000    -2.624000000    -6.298000000
C    -1.258000000    -2.841000000    -5.643000000
C    -0.909000000    -4.157000000    -5.334000000
H    -1.539000000    -4.966000000    -5.696000000
C     0.327000000    -4.373000000    -4.748000000
O     0.836000000    -5.664000000    -4.531000000
C     1.280000000    -6.106000000    -3.269000000
C     2.221000000    -7.095000000    -3.429000000
H     2.624000000    -7.529000000    -4.340000000
C     2.796000000    -7.643000000    -2.313000000
H     3.601000000    -8.361000000    -2.447000000
C     2.390000000    -7.328000000    -1.000000000
H     2.862000000    -7.761000000    -0.123000000
C     1.227000000    -6.488000000    -0.910000000
C     0.679000000    -5.842000000    -2.039000000
H    -0.162000000    -5.175000000    -1.869000000
O    -5.102000000    -7.007000000     1.032000000
H    -4.489000000    -6.691000000     0.369000000
H    -4.576000000    -7.082000000     1.828000000
O    -5.835000000    -2.896000000    -2.643000000
H    -5.163000000    -3.369000000    -2.152000000
H    -5.827000000    -3.302000000    -3.510000000
O    -3.420000000    -1.508000000     2.886000000
H    -2.825000000    -1.069000000     3.494000000
H    -3.505000000    -0.898000000     2.153000000
O    -3.573000000    -0.258000000     0.561000000
H    -3.020000000    -0.696000000    -0.086000000
H    -4.466000000    -0.405000000     0.251000000
O    -7.306000000    -6.159000000    -1.993000000
H    -6.741000000    -6.569000000    -2.649000000
H    -7.559000000    -6.877000000    -1.413000000
O    -3.154000000    -9.576000000     0.661000000
H    -3.345000000    -9.281000000     1.551000000
H    -2.203000000    -9.689000000     0.645000000
O    -8.307000000    -2.439000000     1.249000000
H    -7.811000000    -3.051000000     0.705000000
H    -7.703000000    -2.200000000     1.953000000
O    -5.409000000    -6.504000000    -5.828000000
H    -5.173000000    -5.767000000    -6.391000000
H    -5.041000000    -6.279000000    -4.973000000
O    -6.196000000    -1.387000000    -0.456000000
H    -6.063000000    -1.550000000    -1.389000000
H    -6.388000000    -2.249000000    -0.087000000
O    -5.375000000    -5.182000000     4.132000000
H    -5.274000000    -6.133000000     4.092000000
H    -4.672000000    -4.843000000     3.579000000
O    -2.096000000    -9.118000000     3.168000000
H    -1.738000000    -8.455000000     2.577000000
H    -1.671000000    -9.933000000     2.900000000
O    -4.296000000    -6.178000000    -3.307000000
H    -4.104000000    -5.401000000    -2.783000000
H    -3.877000000    -6.896000000    -2.832000000
O    -7.756000000    -6.985000000     1.718000000
H    -6.859000000    -7.044000000     1.389000000
H    -8.088000000    -6.161000000     1.362000000
O    -7.849000000    -1.348000000    -3.542000000
H    -8.129000000    -1.935000000    -4.245000000
H    -7.126000000    -1.811000000    -3.118000000
O    -3.143000000    -4.060000000     2.899000000
H    -3.331000000    -4.463000000     2.051000000
H    -3.218000000    -3.119000000     2.739000000
O    -1.761000000    -6.842000000     1.506000000
H    -0.894000000    -6.605000000     1.178000000
H    -2.191000000    -6.003000000     1.675000000
O    -5.533000000    -9.703000000    -0.533000000
H    -4.800000000    -9.923000000     0.042000000
H    -5.810000000    -8.833000000    -0.246000000
O    -6.279000000    -4.166000000     0.378000000
H    -6.671000000    -4.500000000    -0.429000000
H    -5.480000000    -4.681000000     0.488000000
O    -2.490000000    -7.838000000    -1.656000000
H    -2.460000000    -7.102000000    -1.045000000
H    -2.876000000    -8.553000000    -1.150000000
