201
-1240.44745
C    -2.746000000     1.597000000     4.164000000
H    -3.026000000     2.277000000     3.364000000
C    -1.376000000     1.541000000     4.458000000
C    -0.994000000     0.564000000     5.308000000
H     0.066000000     0.425000000     5.501000000
C    -0.349000000     2.447000000     3.685000000
O    -0.809000000     3.817000000     3.625000000
H    -0.273000000     1.990000000     2.688000000
O     0.922000000     2.311000000     4.273000000
C     1.979000000     2.037000000     3.439000000
C     2.454000000     0.752000000     3.338000000
H     2.044000000     0.040000000     4.050000000
C     3.571000000     0.451000000     2.554000000
O     4.017000000    -0.877000000     2.470000000
C     4.191000000     1.509000000     1.811000000
C     5.349000000     1.196000000     0.918000000
H     6.082000000     1.985000000     0.742000000
C     4.874000000     0.627000000    -0.467000000
C     4.558000000     1.422000000    -1.574000000
H     4.647000000     2.505000000    -1.556000000
H     5.901000000     0.398000000     1.419000000
C     3.657000000     2.820000000     1.935000000
H     4.131000000     3.598000000     1.341000000
C     2.543000000     3.133000000     2.755000000
C     1.984000000     4.523000000     2.847000000
H     2.757000000     5.206000000     2.486000000
H     1.844000000     4.843000000     3.881000000
C     0.808000000     4.716000000     1.984000000
C     1.051000000     4.888000000     0.631000000
H     2.104000000     5.024000000     0.396000000
C    -0.542000000     4.385000000     2.339000000
C    -1.609000000     4.351000000     1.431000000
H    -2.550000000     3.982000000     1.830000000
C    -1.320000000     4.645000000     0.122000000
O    -2.378000000     4.537000000    -0.736000000
C    -2.259000000     3.253000000    -1.437000000
C    -3.600000000     2.641000000    -1.603000000
C    -3.936000000     1.847000000    -2.681000000
H    -3.265000000     1.714000000    -3.527000000
C    -4.621000000     3.006000000    -0.639000000
H    -4.408000000     3.664000000     0.199000000
O    -1.711000000     3.505000000    -2.764000000
H    -1.688000000     2.445000000    -0.957000000
C     0.004000000     4.934000000    -0.307000000
C     0.339000000     5.018000000    -1.761000000
H     1.248000000     5.620000000    -1.688000000
H    -0.299000000     5.711000000    -2.313000000
C     0.655000000     3.738000000    -2.511000000
C     2.007000000     3.398000000    -2.846000000
H     2.850000000     3.923000000    -2.402000000
C    -0.431000000     3.033000000    -2.967000000
C    -0.188000000     1.943000000    -3.803000000
H    -1.041000000     1.430000000    -4.237000000
C     1.120000000     1.514000000    -4.090000000
O     1.404000000     0.338000000    -4.700000000
C     1.785000000    -0.743000000    -3.773000000
C     1.010000000    -1.973000000    -4.208000000
C    -0.379000000    -1.900000000    -4.517000000
H    -0.822000000    -0.909000000    -4.569000000
C     1.569000000    -3.249000000    -4.041000000
H     2.593000000    -3.465000000    -3.747000000
O     3.196000000    -1.061000000    -3.831000000
H     1.534000000    -0.524000000    -2.725000000
C     2.214000000     2.282000000    -3.666000000
C     3.643000000     1.804000000    -3.860000000
H     4.225000000     2.728000000    -3.869000000
H     3.782000000     1.320000000    -4.829000000
C     4.081000000     0.868000000    -2.738000000
C     3.923000000    -0.520000000    -2.843000000
C     4.287000000    -1.328000000    -1.807000000
H     4.107000000    -2.399000000    -1.862000000
C     4.800000000    -0.781000000    -0.641000000
O     4.782000000    -1.683000000     0.354000000
C     3.651000000    -1.571000000     1.238000000
H     2.925000000    -1.091000000     0.566000000
C     3.090000000    -2.969000000     1.615000000
C     2.169000000    -3.092000000     2.654000000
H     1.928000000    -2.225000000     3.264000000
C     3.234000000    -4.048000000     0.775000000
H     4.055000000    -4.019000000     0.063000000
C     2.584000000    -5.311000000     0.994000000
O     2.810000000    -6.349000000     0.164000000
C     1.774000000    -5.442000000     2.107000000
H     1.319000000    -6.418000000     2.255000000
C     1.588000000    -4.325000000     2.944000000
O     0.745000000    -4.470000000     4.051000000
C     0.699000000    -3.616000000     5.176000000
C    -0.372000000    -2.816000000     5.386000000
H    -1.145000000    -2.995000000     4.643000000
C     1.678000000    -3.705000000     6.178000000
H     2.397000000    -4.500000000     6.000000000
C     1.582000000    -3.038000000     7.388000000
H     2.255000000    -3.205000000     8.225000000
C     0.466000000    -2.165000000     7.532000000
H     0.285000000    -1.563000000     8.419000000
C    -0.494000000    -2.105000000     6.540000000
O    -1.508000000    -1.214000000     6.811000000
C    -1.929000000    -0.269000000     5.883000000
C    -3.292000000    -0.169000000     5.609000000
H    -3.987000000    -0.867000000     6.069000000
C    -3.684000000     0.750000000     4.660000000
O    -4.973000000     0.782000000     4.118000000
C    -5.569000000     1.833000000     3.513000000
C    -6.054000000     1.605000000     2.175000000
H    -6.070000000     0.582000000     1.808000000
C    -5.627000000     3.132000000     4.119000000
H    -5.224000000     3.221000000     5.125000000
C    -6.049000000     4.222000000     3.373000000
H    -5.976000000     5.266000000     3.665000000
C    -6.401000000     4.081000000     2.050000000
H    -6.687000000     4.913000000     1.412000000
C    -6.570000000     2.758000000     1.497000000
O    -6.917000000     2.590000000     0.199000000
C    -5.948000000     2.383000000    -0.765000000
C    -6.229000000     1.530000000    -1.811000000
H    -7.159000000     0.968000000    -1.802000000
C    -5.206000000     1.246000000    -2.721000000
O    -5.519000000     0.402000000    -3.767000000
C    -4.720000000    -0.088000000    -4.741000000
C    -4.188000000    -1.353000000    -4.519000000
H    -4.525000000    -1.895000000    -3.639000000
C    -4.407000000     0.565000000    -5.920000000
H    -4.986000000     1.478000000    -6.036000000
C    -3.427000000     0.114000000    -6.798000000
H    -3.187000000     0.679000000    -7.695000000
C    -2.837000000    -1.134000000    -6.473000000
H    -2.107000000    -1.404000000    -7.232000000
C    -3.175000000    -1.891000000    -5.344000000
O    -2.519000000    -2.973000000    -4.985000000
C    -1.148000000    -3.021000000    -4.775000000
C    -0.620000000    -4.268000000    -4.711000000
H    -1.187000000    -5.154000000    -4.985000000
C     0.739000000    -4.371000000    -4.282000000
O     1.325000000    -5.623000000    -4.353000000
C     2.230000000    -6.054000000    -3.451000000
C     3.107000000    -7.033000000    -3.904000000
H     3.019000000    -7.406000000    -4.922000000
C     3.975000000    -7.716000000    -2.984000000
H     4.596000000    -8.550000000    -3.298000000
C     3.967000000    -7.373000000    -1.610000000
H     4.568000000    -7.926000000    -0.893000000
C     3.026000000    -6.415000000    -1.183000000
C     2.247000000    -5.704000000    -2.114000000
H     1.566000000    -4.952000000    -1.725000000
O    -5.640000000    -3.803000000     1.136000000
H    -5.144000000    -3.775000000     0.318000000
H    -6.178000000    -4.592000000     1.063000000
O    -3.363000000    -5.975000000    -2.282000000
H    -3.280000000    -5.243000000    -1.671000000
H    -2.567000000    -6.490000000    -2.147000000
O    -5.582000000    -8.448000000     1.971000000
H    -6.407000000    -8.592000000     1.507000000
H    -5.082000000    -7.868000000     1.396000000
O    -4.371000000    -1.459000000     2.258000000
H    -5.062000000    -1.244000000     2.884000000
H    -4.670000000    -2.266000000     1.839000000
O    -3.157000000     0.801000000     1.104000000
H    -3.696000000     0.031000000     1.282000000
H    -2.265000000     0.459000000     1.037000000
O    -0.684000000    -7.604000000    -4.094000000
H    -0.816000000    -8.034000000    -3.249000000
H    -0.209000000    -6.800000000    -3.883000000
O     1.235000000    -8.762000000     1.054000000
H     0.867000000    -8.858000000     1.933000000
H     0.745000000    -8.037000000     0.667000000
O    -5.555000000    -6.770000000    -4.060000000
H    -4.928000000    -6.148000000    -3.690000000
H    -5.852000000    -6.357000000    -4.871000000
O    -5.036000000    -1.494000000    -0.938000000
H    -4.621000000    -0.717000000    -1.312000000
H    -4.390000000    -2.190000000    -1.055000000
O    -2.757000000    -5.349000000     5.888000000
H    -1.962000000    -5.830000000     5.654000000
H    -2.990000000    -4.871000000     5.093000000
O    -7.392000000    -2.679000000    -3.044000000
H    -6.670000000    -3.161000000    -2.642000000
H    -7.243000000    -2.765000000    -3.985000000
O    -0.487000000    -6.741000000     5.109000000
H    -0.177000000    -6.040000000     4.536000000
H    -0.172000000    -7.545000000     4.695000000
O    -5.500000000    -3.937000000     4.910000000
H    -4.597000000    -3.641000000     4.794000000
H    -5.608000000    -4.635000000     4.264000000
O    -5.296000000    -5.985000000     3.143000000
H    -4.987000000    -5.772000000     2.262000000
H    -5.281000000    -6.942000000     3.177000000
O    -7.569000000    -1.378000000     0.757000000
H    -7.060000000    -1.989000000     1.290000000
H    -7.060000000    -1.281000000    -0.048000000
O    -4.226000000    -6.273000000     0.418000000
H    -4.054000000    -6.659000000    -0.440000000
H    -3.715000000    -5.463000000     0.423000000
O    -2.910000000    -3.875000000     3.388000000
H    -2.713000000    -4.488000000     2.679000000
H    -2.779000000    -3.010000000     2.999000000
O    -1.190000000    -7.269000000     1.093000000
H    -1.577000000    -7.441000000     1.951000000
H    -1.483000000    -6.385000000     0.871000000
O    -0.765000000    -8.356000000    -1.396000000
H    -1.517000000    -8.942000000    -1.486000000
H    -0.853000000    -7.987000000    -0.517000000
