201
-1250.98121
C    -3.372000000     2.225000000     3.291000000
H    -3.290000000     3.133000000     2.698000000
C    -2.141000000     1.707000000     3.796000000
C    -2.190000000     0.517000000     4.486000000
H    -1.229000000     0.050000000     4.684000000
C    -0.733000000     2.227000000     3.381000000
O    -0.947000000     3.635000000     3.183000000
H    -0.407000000     1.804000000     2.419000000
O     0.276000000     2.040000000     4.430000000
C     1.515000000     1.646000000     4.011000000
C     1.886000000     0.267000000     4.095000000
H     1.242000000    -0.353000000     4.714000000
C     3.047000000    -0.220000000     3.506000000
O     3.108000000    -1.584000000     3.416000000
C     3.934000000     0.693000000     2.788000000
C     5.184000000     0.147000000     2.044000000
H     5.906000000     0.956000000     1.922000000
C     4.916000000    -0.340000000     0.622000000
C     5.100000000     0.515000000    -0.471000000
H     5.450000000     1.511000000    -0.212000000
H     5.643000000    -0.536000000     2.761000000
C     3.602000000     2.057000000     2.863000000
H     4.259000000     2.817000000     2.448000000
C     2.418000000     2.512000000     3.413000000
C     2.069000000     3.937000000     3.363000000
H     2.965000000     4.559000000     3.319000000
H     1.575000000     4.219000000     4.295000000
C     1.133000000     4.263000000     2.162000000
C     1.723000000     4.601000000     0.992000000
H     2.802000000     4.487000000     0.930000000
C    -0.264000000     4.125000000     2.123000000
C    -1.066000000     4.459000000     1.083000000
H    -2.142000000     4.491000000     1.233000000
C    -0.441000000     4.849000000    -0.092000000
O    -1.199000000     4.886000000    -1.208000000
C    -1.282000000     3.586000000    -1.849000000
C    -2.699000000     3.189000000    -2.165000000
C    -2.881000000     2.249000000    -3.184000000
H    -1.999000000     1.784000000    -3.618000000
C    -3.790000000     3.768000000    -1.597000000
H    -3.647000000     4.605000000    -0.917000000
O    -0.508000000     3.606000000    -3.085000000
H    -0.898000000     2.866000000    -1.111000000
C     0.919000000     4.763000000    -0.161000000
C     1.586000000     5.012000000    -1.521000000
H     2.553000000     5.465000000    -1.292000000
H     1.043000000     5.779000000    -2.077000000
C     1.850000000     3.737000000    -2.355000000
C     3.055000000     3.048000000    -2.257000000
H     3.913000000     3.641000000    -1.951000000
C     0.773000000     3.072000000    -3.013000000
C     0.975000000     1.883000000    -3.690000000
H     0.230000000     1.394000000    -4.313000000
C     2.215000000     1.231000000    -3.607000000
O     2.316000000     0.046000000    -4.307000000
C     2.255000000    -1.121000000    -3.432000000
C     1.518000000    -2.254000000    -4.172000000
C     0.490000000    -1.957000000    -4.994000000
H     0.186000000    -0.926000000    -5.161000000
C     1.840000000    -3.603000000    -3.762000000
H     2.785000000    -3.754000000    -3.247000000
O     3.618000000    -1.460000000    -3.154000000
H     1.656000000    -0.936000000    -2.528000000
C     3.246000000     1.816000000    -2.828000000
C     4.645000000     1.192000000    -2.767000000
H     5.386000000     1.964000000    -2.549000000
H     4.875000000     0.797000000    -3.759000000
C     4.702000000     0.124000000    -1.745000000
C     4.105000000    -1.084000000    -1.916000000
C     4.070000000    -1.986000000    -0.857000000
H     3.791000000    -3.002000000    -1.126000000
C     4.460000000    -1.629000000     0.414000000
O     4.103000000    -2.423000000     1.485000000
C     2.860000000    -2.163000000     2.141000000
H     2.330000000    -1.412000000     1.537000000
C     2.045000000    -3.494000000     2.234000000
C     1.056000000    -3.576000000     3.181000000
H     0.841000000    -2.706000000     3.797000000
C     2.295000000    -4.554000000     1.413000000
H     3.048000000    -4.503000000     0.630000000
C     1.607000000    -5.762000000     1.564000000
O     1.950000000    -6.895000000     0.849000000
C     0.525000000    -5.800000000     2.382000000
H     0.052000000    -6.767000000     2.530000000
C     0.237000000    -4.735000000     3.233000000
O    -0.790000000    -4.895000000     4.124000000
C    -1.146000000    -4.017000000     5.115000000
C    -2.304000000    -3.221000000     4.958000000
H    -2.957000000    -3.431000000     4.115000000
C    -0.348000000    -3.832000000     6.237000000
H     0.520000000    -4.484000000     6.287000000
C    -0.480000000    -2.732000000     7.000000000
H     0.159000000    -2.641000000     7.874000000
C    -1.636000000    -1.923000000     6.853000000
H    -1.837000000    -1.048000000     7.465000000
C    -2.444000000    -2.114000000     5.771000000
O    -3.448000000    -1.257000000     5.487000000
C    -3.429000000    -0.088000000     4.777000000
C    -4.609000000     0.448000000     4.387000000
H    -5.567000000     0.003000000     4.642000000
C    -4.554000000     1.635000000     3.667000000
O    -5.723000000     2.207000000     3.243000000
C    -5.866000000     3.315000000     2.403000000
C    -5.629000000     3.167000000     1.023000000
H    -5.268000000     2.207000000     0.663000000
C    -6.373000000     4.515000000     2.867000000
H    -6.514000000     4.641000000     3.938000000
C    -6.733000000     5.555000000     2.005000000
H    -7.020000000     6.528000000     2.395000000
C    -6.682000000     5.312000000     0.665000000
H    -7.034000000     6.051000000    -0.049000000
C    -5.977000000     4.227000000     0.188000000
O    -6.095000000     3.912000000    -1.176000000
C    -5.078000000     3.386000000    -1.911000000
C    -5.247000000     2.256000000    -2.751000000
H    -6.227000000     1.836000000    -2.960000000
C    -4.138000000     1.758000000    -3.440000000
O    -4.261000000     0.589000000    -4.167000000
C    -3.477000000     0.105000000    -5.200000000
C    -2.900000000    -1.203000000    -5.125000000
H    -3.241000000    -1.855000000    -4.325000000
C    -3.355000000     0.838000000    -6.353000000
H    -3.921000000     1.752000000    -6.515000000
C    -2.531000000     0.363000000    -7.423000000
H    -2.532000000     0.931000000    -8.350000000
C    -1.895000000    -0.828000000    -7.275000000
H    -1.340000000    -1.223000000    -8.122000000
C    -2.074000000    -1.636000000    -6.155000000
O    -1.509000000    -2.898000000    -6.087000000
C    -0.333000000    -3.058000000    -5.360000000
C    -0.059000000    -4.382000000    -4.983000000
H    -0.804000000    -5.157000000    -5.142000000
C     0.958000000    -4.665000000    -4.125000000
O     1.250000000    -5.972000000    -3.799000000
C     2.089000000    -6.403000000    -2.752000000
C     3.464000000    -6.647000000    -3.023000000
H     3.831000000    -6.585000000    -4.045000000
C     4.252000000    -6.939000000    -1.913000000
H     5.324000000    -7.120000000    -1.934000000
C     3.740000000    -7.054000000    -0.606000000
H     4.423000000    -7.258000000     0.214000000
C     2.429000000    -6.815000000    -0.397000000
C     1.647000000    -6.423000000    -1.442000000
H     0.628000000    -6.104000000    -1.240000000
O    -7.711000000    -0.966000000     3.383000000
H    -6.878000000    -1.155000000     2.952000000
H    -8.329000000    -0.836000000     2.663000000
O    -2.409000000    -4.315000000     0.095000000
H    -3.203000000    -4.249000000    -0.436000000
H    -2.464000000    -3.575000000     0.700000000
O    -5.240000000    -1.576000000    -2.574000000
H    -4.684000000    -0.880000000    -2.924000000
H    -5.484000000    -1.271000000    -1.700000000
O    -8.415000000    -4.450000000     2.715000000
H    -7.518000000    -4.747000000     2.872000000
H    -8.343000000    -3.852000000     1.971000000
O    -5.604000000    -3.612000000     4.788000000
H    -5.391000000    -3.998000000     3.939000000
H    -5.475000000    -2.672000000     4.663000000
O    -4.659000000    -3.780000000    -1.223000000
H    -5.523000000    -4.185000000    -1.303000000
H    -4.754000000    -2.927000000    -1.646000000
O   -10.155000000    -0.889000000     0.644000000
H   -10.858000000    -0.322000000     0.326000000
H    -9.388000000    -0.626000000     0.137000000
O    -9.167000000    -3.009000000    -2.039000000
H    -9.237000000    -3.946000000    -1.855000000
H    -9.971000000    -2.798000000    -2.515000000
O    -2.954000000    -4.173000000    -3.252000000
H    -3.319000000    -4.055000000    -2.375000000
H    -2.174000000    -4.710000000    -3.117000000
O    -9.229000000     3.140000000    -0.298000000
H    -9.374000000     3.155000000     0.648000000
H    -8.807000000     2.297000000    -0.463000000
O    -6.115000000    -6.469000000     4.040000000
H    -5.767000000    -7.334000000     3.822000000
H    -5.545000000    -5.857000000     3.574000000
O    -7.514000000    -2.707000000     0.411000000
H    -8.030000000    -2.731000000    -0.395000000
H    -6.805000000    -2.092000000     0.223000000
O    -8.339000000     0.823000000    -3.802000000
H    -8.165000000     1.469000000    -4.486000000
H    -7.895000000     0.030000000    -4.102000000
O    -7.858000000     0.503000000    -0.906000000
H    -7.854000000     0.411000000    -1.859000000
H    -7.104000000    -0.008000000    -0.613000000
O    -7.341000000    -1.659000000    -4.446000000
H    -6.945000000    -2.044000000    -5.228000000
H    -6.714000000    -1.842000000    -3.746000000
O    -8.508000000    -2.680000000     5.314000000
H    -8.256000000    -1.856000000     4.897000000
H    -8.032000000    -3.351000000     4.825000000
O    -8.450000000     1.637000000     4.157000000
H    -7.789000000     0.971000000     3.969000000
H    -8.023000000     2.233000000     4.772000000
O    -5.087000000    -3.851000000     2.191000000
H    -4.968000000    -4.112000000     1.278000000
H    -5.370000000    -2.938000000     2.144000000
O    -1.815000000    -6.939000000     0.056000000
H    -1.828000000    -6.734000000    -0.879000000
H    -2.053000000    -6.116000000     0.484000000
