201
-1229.80114
C    -1.787000000     4.345000000     3.503000000
H    -1.927000000     5.236000000     2.896000000
C    -0.681000000     3.481000000     3.542000000
C    -0.679000000     2.394000000     4.394000000
H     0.144000000     1.690000000     4.300000000
C     0.522000000     3.618000000     2.597000000
O     0.450000000     4.899000000     1.926000000
H     0.257000000     2.804000000     1.906000000
O     1.821000000     3.357000000     3.284000000
C     2.800000000     2.607000000     2.654000000
C     3.069000000     1.385000000     3.188000000
H     2.617000000     1.120000000     4.141000000
C     3.943000000     0.550000000     2.506000000
O     4.102000000    -0.732000000     2.933000000
C     4.659000000     0.967000000     1.321000000
C     5.695000000     0.000000000     0.693000000
H     6.442000000     0.576000000     0.142000000
C     4.953000000    -0.789000000    -0.372000000
C     4.749000000    -0.324000000    -1.637000000
H     5.263000000     0.583000000    -1.945000000
H     6.073000000    -0.742000000     1.399000000
C     4.365000000     2.246000000     0.805000000
H     4.877000000     2.566000000    -0.099000000
C     3.486000000     3.084000000     1.534000000
C     3.221000000     4.460000000     1.009000000
H     4.033000000     4.962000000     0.478000000
H     3.052000000     5.081000000     1.891000000
C     2.003000000     4.511000000     0.057000000
C     2.194000000     4.179000000    -1.281000000
H     3.202000000     3.935000000    -1.606000000
C     0.678000000     4.694000000     0.599000000
C    -0.392000000     4.623000000    -0.262000000
H    -1.430000000     4.806000000     0.001000000
C    -0.200000000     4.322000000    -1.612000000
O    -1.307000000     4.141000000    -2.382000000
C    -1.510000000     2.767000000    -2.852000000
C    -2.916000000     2.258000000    -2.723000000
C    -3.552000000     1.533000000    -3.695000000
H    -3.098000000     1.499000000    -4.682000000
C    -3.533000000     2.403000000    -1.465000000
H    -2.905000000     2.955000000    -0.771000000
O    -1.018000000     2.577000000    -4.165000000
H    -0.933000000     2.154000000    -2.144000000
C     1.106000000     4.180000000    -2.125000000
C     1.422000000     3.993000000    -3.560000000
H     2.342000000     4.529000000    -3.802000000
H     0.704000000     4.520000000    -4.193000000
C     1.401000000     2.521000000    -3.923000000
C     2.529000000     1.760000000    -3.869000000
H     3.481000000     2.194000000    -3.576000000
C     0.190000000     1.889000000    -4.301000000
C     0.185000000     0.464000000    -4.473000000
H    -0.675000000    -0.121000000    -4.788000000
C     1.333000000    -0.281000000    -4.352000000
O     1.315000000    -1.673000000    -4.448000000
C     1.198000000    -2.237000000    -3.121000000
C     0.030000000    -3.267000000    -3.019000000
C    -1.039000000    -3.166000000    -3.898000000
H    -0.970000000    -2.362000000    -4.626000000
C    -0.020000000    -4.267000000    -2.083000000
H     0.805000000    -4.347000000    -1.379000000
O     2.408000000    -2.918000000    -2.829000000
H     1.074000000    -1.438000000    -2.374000000
C     2.579000000     0.371000000    -4.062000000
C     3.832000000    -0.466000000    -3.971000000
H     4.752000000     0.049000000    -4.254000000
H     3.711000000    -1.227000000    -4.745000000
C     4.032000000    -1.078000000    -2.577000000
C     3.373000000    -2.243000000    -2.130000000
C     3.609000000    -2.784000000    -0.948000000
H     3.006000000    -3.642000000    -0.662000000
C     4.373000000    -2.051000000    -0.034000000
O     4.340000000    -2.449000000     1.240000000
C     3.386000000    -1.724000000     2.119000000
H     2.739000000    -1.114000000     1.471000000
C     2.627000000    -2.730000000     3.015000000
C     1.887000000    -2.379000000     4.139000000
H     1.811000000    -1.339000000     4.447000000
C     2.653000000    -4.087000000     2.676000000
H     3.171000000    -4.506000000     1.817000000
C     1.937000000    -4.988000000     3.423000000
O     1.808000000    -6.289000000     2.867000000
C     1.216000000    -4.639000000     4.576000000
H     0.628000000    -5.360000000     5.138000000
C     1.271000000    -3.274000000     4.983000000
O     0.432000000    -2.913000000     6.046000000
C     0.382000000    -1.633000000     6.483000000
C    -0.747000000    -0.878000000     6.217000000
H    -1.638000000    -1.272000000     5.733000000
C     1.531000000    -1.017000000     6.955000000
H     2.478000000    -1.545000000     7.031000000
C     1.528000000     0.271000000     7.341000000
H     2.464000000     0.716000000     7.671000000
C     0.336000000     0.996000000     7.253000000
H     0.288000000     1.997000000     7.675000000
C    -0.730000000     0.475000000     6.515000000
O    -1.845000000     1.190000000     6.234000000
C    -1.749000000     2.179000000     5.265000000
C    -2.859000000     2.918000000     5.172000000
H    -3.662000000     2.770000000     5.889000000
C    -2.937000000     4.002000000     4.290000000
O    -4.243000000     4.561000000     4.037000000
C    -4.856000000     4.508000000     2.777000000
C    -4.686000000     3.412000000     1.968000000
H    -4.007000000     2.693000000     2.421000000
C    -5.801000000     5.442000000     2.366000000
H    -5.965000000     6.258000000     3.065000000
C    -6.474000000     5.288000000     1.163000000
H    -7.246000000     5.993000000     0.866000000
C    -6.280000000     4.069000000     0.395000000
H    -6.889000000     3.866000000    -0.482000000
C    -5.335000000     3.170000000     0.812000000
O    -5.271000000     1.981000000     0.136000000
C    -4.746000000     1.830000000    -1.124000000
C    -5.310000000     1.028000000    -2.072000000
H    -6.256000000     0.565000000    -1.804000000
C    -4.789000000     0.899000000    -3.344000000
O    -5.394000000     0.028000000    -4.187000000
C    -4.870000000    -0.927000000    -4.975000000
C    -4.129000000    -1.956000000    -4.451000000
H    -3.909000000    -2.022000000    -3.388000000
C    -5.076000000    -0.829000000    -6.376000000
H    -5.724000000    -0.019000000    -6.700000000
C    -4.606000000    -1.810000000    -7.254000000
H    -4.912000000    -1.762000000    -8.295000000
C    -3.985000000    -2.913000000    -6.697000000
H    -3.730000000    -3.791000000    -7.285000000
C    -3.680000000    -2.976000000    -5.320000000
O    -3.011000000    -4.075000000    -4.812000000
C    -2.068000000    -4.041000000    -3.822000000
C    -2.122000000    -4.989000000    -2.792000000
H    -3.012000000    -5.579000000    -2.594000000
C    -1.066000000    -5.131000000    -1.932000000
O    -1.131000000    -6.028000000    -0.901000000
C     0.058000000    -6.544000000    -0.310000000
C     1.013000000    -7.240000000    -1.080000000
H     0.785000000    -7.334000000    -2.139000000
C     2.267000000    -7.527000000    -0.555000000
H     3.055000000    -8.001000000    -1.135000000
C     2.480000000    -7.393000000     0.830000000
H     3.413000000    -7.628000000     1.336000000
C     1.601000000    -6.606000000     1.577000000
C     0.461000000    -6.148000000     0.984000000
H    -0.212000000    -5.454000000     1.480000000
O    -7.191000000    -0.897000000     1.073000000
H    -7.954000000    -1.461000000     1.200000000
H    -6.749000000    -1.260000000     0.306000000
O    -5.600000000    -0.038000000     2.966000000
H    -4.881000000    -0.508000000     2.544000000
H    -6.288000000    -0.004000000     2.301000000
O    -6.091000000    -2.176000000    -1.211000000
H    -5.289000000    -2.438000000    -0.759000000
H    -6.494000000    -3.000000000    -1.482000000
O    -4.092000000    -2.301000000     4.992000000
H    -3.869000000    -1.977000000     4.119000000
H    -4.348000000    -3.213000000     4.851000000
O    -8.880000000     1.758000000     0.994000000
H    -8.165000000     1.136000000     1.129000000
H    -9.112000000     1.659000000     0.071000000
O    -6.553000000    -0.808000000     5.926000000
H    -5.793000000    -1.068000000     5.405000000
H    -7.297000000    -1.219000000     5.487000000
O    -7.645000000    -5.799000000     1.164000000
H    -7.793000000    -6.718000000     0.944000000
H    -6.727000000    -5.643000000     0.941000000
O    -5.414000000    -8.133000000     2.947000000
H    -5.101000000    -7.574000000     2.237000000
H    -5.804000000    -7.525000000     3.576000000
O    -6.686000000     2.227000000     4.888000000
H    -6.492000000     1.321000000     4.650000000
H    -6.131000000     2.751000000     4.311000000
O    -6.037000000    -4.408000000    -2.762000000
H    -5.555000000    -4.094000000    -3.527000000
H    -6.640000000    -5.064000000    -3.111000000
O    -1.746000000    -6.868000000     3.894000000
H    -2.571000000    -6.980000000     3.422000000
H    -1.620000000    -5.919000000     3.935000000
O    -3.332000000    -6.297000000     1.532000000
H    -3.752000000    -5.885000000     0.777000000
H    -2.460000000    -5.904000000     1.565000000
O    -5.705000000    -4.086000000     3.041000000
H    -5.013000000    -3.526000000     2.688000000
H    -6.350000000    -4.142000000     2.336000000
O    -5.104000000    -5.160000000    -0.201000000
H    -5.514000000    -5.087000000    -1.063000000
H    -4.880000000    -4.259000000     0.034000000
O    -7.785000000    -0.983000000    -3.072000000
H    -8.178000000    -0.332000000    -2.490000000
H    -7.077000000    -1.369000000    -2.556000000
O    -6.476000000    -6.234000000     4.656000000
H    -6.445000000    -5.919000000     5.559000000
H    -6.146000000    -5.503000000     4.135000000
O    -8.054000000    -2.751000000     4.723000000
H    -7.645000000    -3.301000000     4.054000000
H    -8.965000000    -2.668000000     4.441000000
O    -2.083000000    -4.110000000     3.216000000
H    -2.910000000    -3.787000000     2.858000000
H    -1.484000000    -3.368000000     3.143000000
O    -3.519000000    -2.709000000     7.498000000
H    -3.873000000    -2.665000000     6.610000000
H    -3.502000000    -1.799000000     7.794000000
