201
-1210.10261
C    -1.250000000     3.801000000     2.130000000
H    -1.726000000     3.746000000     1.154000000
C     0.164000000     3.915000000     2.256000000
C     0.771000000     3.875000000     3.574000000
H     1.847000000     3.863000000     3.733000000
C     1.051000000     3.915000000     1.044000000
O     0.714000000     4.894000000     0.076000000
H     0.942000000     2.917000000     0.594000000
O     2.490000000     4.054000000     1.400000000
C     3.359000000     3.170000000     0.842000000
C     3.851000000     2.137000000     1.578000000
H     3.657000000     2.169000000     2.647000000
C     4.507000000     1.062000000     0.978000000
O     4.724000000     0.037000000     1.839000000
C     4.767000000     1.060000000    -0.402000000
C     5.604000000    -0.107000000    -1.008000000
H     6.244000000     0.120000000    -1.863000000
C     4.665000000    -1.233000000    -1.477000000
C     4.054000000    -1.175000000    -2.694000000
H     4.190000000    -0.305000000    -3.330000000
H     6.380000000    -0.425000000    -0.309000000
C     4.490000000     2.222000000    -1.119000000
H     4.649000000     2.303000000    -2.191000000
C     3.714000000     3.257000000    -0.544000000
C     3.190000000     4.412000000    -1.433000000
H     3.874000000     4.582000000    -2.268000000
H     3.287000000     5.323000000    -0.840000000
C     1.783000000     4.056000000    -1.951000000
C     1.669000000     3.407000000    -3.203000000
H     2.513000000     3.044000000    -3.784000000
C     0.640000000     4.525000000    -1.266000000
C    -0.621000000     4.285000000    -1.819000000
H    -1.558000000     4.520000000    -1.323000000
C    -0.736000000     3.577000000    -3.008000000
O    -2.023000000     3.175000000    -3.245000000
C    -2.408000000     1.768000000    -3.154000000
C    -3.808000000     1.702000000    -2.592000000
C    -4.598000000     0.520000000    -2.820000000
H    -4.154000000    -0.299000000    -3.381000000
C    -4.360000000     2.743000000    -1.875000000
H    -3.812000000     3.657000000    -1.658000000
O    -2.246000000     1.110000000    -4.430000000
H    -1.807000000     1.254000000    -2.390000000
C     0.387000000     3.113000000    -3.655000000
C     0.236000000     2.452000000    -4.940000000
H     0.973000000     2.653000000    -5.719000000
H    -0.562000000     2.977000000    -5.469000000
C     0.149000000     0.895000000    -4.885000000
C     1.308000000     0.053000000    -4.877000000
H     2.263000000     0.522000000    -5.100000000
C    -1.088000000     0.369000000    -4.573000000
C    -1.130000000    -0.971000000    -4.257000000
H    -2.097000000    -1.438000000    -4.091000000
C     0.018000000    -1.801000000    -4.187000000
O    -0.121000000    -3.101000000    -3.775000000
C     0.236000000    -3.480000000    -2.425000000
C    -0.764000000    -4.273000000    -1.623000000
C    -2.124000000    -4.245000000    -1.979000000
H    -2.441000000    -3.705000000    -2.868000000
C    -0.422000000    -4.992000000    -0.509000000
H     0.618000000    -4.943000000    -0.199000000
O     1.657000000    -3.961000000    -2.394000000
H     0.206000000    -2.529000000    -1.874000000
C     1.225000000    -1.338000000    -4.608000000
C     2.571000000    -2.165000000    -4.538000000
H     3.282000000    -1.608000000    -5.151000000
H     2.501000000    -3.200000000    -4.879000000
C     3.082000000    -2.126000000    -3.100000000
C     2.784000000    -3.133000000    -2.214000000
C     3.421000000    -3.236000000    -0.964000000
H     3.094000000    -3.955000000    -0.217000000
C     4.228000000    -2.198000000    -0.528000000
O     4.689000000    -2.218000000     0.804000000
C     4.008000000    -1.213000000     1.709000000
H     3.084000000    -0.928000000     1.184000000
C     3.500000000    -1.760000000     3.047000000
C     2.840000000    -0.916000000     3.939000000
H     2.984000000     0.161000000     3.915000000
C     3.380000000    -3.158000000     3.187000000
H     3.847000000    -3.809000000     2.453000000
C     2.883000000    -3.697000000     4.363000000
O     2.643000000    -5.093000000     4.507000000
C     2.403000000    -2.866000000     5.412000000
H     2.165000000    -3.347000000     6.357000000
C     2.329000000    -1.420000000     5.150000000
O     2.076000000    -0.574000000     6.158000000
C     2.342000000     0.731000000     6.292000000
C     1.315000000     1.590000000     6.162000000
H     0.335000000     1.173000000     5.944000000
C     3.603000000     1.312000000     6.507000000
H     4.415000000     0.593000000     6.578000000
C     3.835000000     2.721000000     6.542000000
H     4.825000000     3.144000000     6.692000000
C     2.735000000     3.606000000     6.491000000
H     2.777000000     4.692000000     6.493000000
C     1.492000000     2.998000000     6.213000000
O     0.408000000     3.773000000     5.911000000
C    -0.109000000     3.764000000     4.641000000
C    -1.500000000     3.627000000     4.546000000
H    -2.177000000     3.731000000     5.390000000
C    -2.048000000     3.755000000     3.281000000
O    -3.369000000     3.537000000     3.159000000
C    -4.106000000     4.235000000     2.170000000
C    -4.880000000     3.620000000     1.169000000
H    -4.762000000     2.555000000     0.991000000
C    -4.326000000     5.602000000     2.300000000
H    -3.945000000     6.060000000     3.209000000
C    -5.107000000     6.352000000     1.445000000
H    -5.252000000     7.407000000     1.663000000
C    -5.718000000     5.741000000     0.373000000
H    -6.352000000     6.336000000    -0.279000000
C    -5.613000000     4.368000000     0.215000000
O    -6.271000000     3.736000000    -0.809000000
C    -5.729000000     2.665000000    -1.472000000
C    -6.437000000     1.503000000    -1.713000000
H    -7.494000000     1.473000000    -1.459000000
C    -5.883000000     0.357000000    -2.296000000
O    -6.742000000    -0.719000000    -2.493000000
C    -6.280000000    -1.997000000    -2.860000000
C    -5.807000000    -2.810000000    -1.823000000
H    -5.994000000    -2.633000000    -0.767000000
C    -6.144000000    -2.289000000    -4.207000000
H    -6.655000000    -1.648000000    -4.921000000
C    -5.639000000    -3.502000000    -4.625000000
H    -5.601000000    -3.758000000    -5.681000000
C    -5.078000000    -4.262000000    -3.632000000
H    -4.660000000    -5.238000000    -3.860000000
C    -5.091000000    -3.914000000    -2.231000000
O    -4.404000000    -4.673000000    -1.321000000
C    -3.101000000    -4.823000000    -1.168000000
C    -2.722000000    -5.679000000    -0.193000000
H    -3.482000000    -6.180000000     0.401000000
C    -1.409000000    -5.723000000     0.247000000
O    -1.017000000    -6.258000000     1.468000000
C     0.310000000    -6.406000000     1.850000000
C     1.146000000    -7.343000000     1.265000000
H     0.868000000    -8.031000000     0.472000000
C     2.445000000    -7.500000000     1.781000000
H     3.073000000    -8.125000000     1.151000000
C     2.906000000    -6.630000000     2.763000000
H     3.972000000    -6.666000000     2.970000000
C     2.077000000    -5.808000000     3.445000000
C     0.776000000    -5.660000000     2.987000000
H     0.173000000    -4.972000000     3.575000000
O    -9.612000000    -0.341000000    -1.034000000
H    -9.069000000    -0.024000000    -0.313000000
H    -9.698000000     0.412000000    -1.619000000
O    -6.751000000     0.597000000     3.611000000
H    -5.871000000     0.341000000     3.337000000
H    -6.676000000     0.747000000     4.553000000
O    -7.746000000    -0.313000000     1.080000000
H    -6.905000000    -0.724000000     0.878000000
H    -7.580000000     0.196000000     1.873000000
O    -3.004000000    -2.655000000     7.897000000
H    -3.320000000    -2.324000000     7.056000000
H    -3.567000000    -3.406000000     8.086000000
O    -8.739000000     2.496000000     3.051000000
H    -9.011000000     2.754000000     2.171000000
H    -7.787000000     2.412000000     2.994000000
O    -3.950000000    -2.140000000     5.370000000
H    -3.884000000    -1.768000000     4.491000000
H    -4.624000000    -2.816000000     5.293000000
O    -6.076000000    -6.355000000     0.899000000
H    -6.674000000    -5.661000000     0.622000000
H    -5.928000000    -6.186000000     1.830000000
O    -9.182000000    -0.301000000     4.463000000
H    -9.416000000    -1.118000000     4.022000000
H    -8.404000000     0.007000000     3.998000000
O    -8.738000000    -3.316000000     0.205000000
H    -8.842000000    -3.798000000    -0.616000000
H    -9.468000000    -2.697000000     0.213000000
O    -1.476000000    -3.374000000     2.862000000
H    -1.206000000    -2.930000000     2.059000000
H    -2.336000000    -3.740000000     2.656000000
O    -1.710000000    -4.207000000     5.493000000
H    -2.333000000    -3.593000000     5.883000000
H    -1.630000000    -3.921000000     4.583000000
O    -5.612000000    -0.638000000     7.208000000
H    -6.353000000    -0.904000000     6.664000000
H    -4.867000000    -1.121000000     6.849000000
O    -3.078000000     1.059000000     5.352000000
H    -3.534000000     0.350000000     4.898000000
H    -3.457000000     1.859000000     4.989000000
O    -6.929000000    -3.206000000     2.506000000
H    -7.661000000    -3.094000000     1.900000000
H    -6.317000000    -2.509000000     2.274000000
O    -2.290000000     1.094000000     7.842000000
H    -2.701000000     0.947000000     6.990000000
H    -2.280000000     0.231000000     8.255000000
O    -8.336000000    -4.231000000     4.886000000
H    -9.168000000    -4.563000000     4.549000000
H    -7.845000000    -3.977000000     4.104000000
O    -5.589000000    -4.448000000     5.637000000
H    -5.313000000    -4.643000000     6.533000000
H    -6.543000000    -4.393000000     5.687000000
O    -3.941000000    -4.064000000     2.074000000
H    -4.045000000    -4.241000000     1.139000000
H    -4.456000000    -3.271000000     2.226000000
O    -5.321000000    -6.115000000     3.399000000
H    -5.627000000    -5.586000000     4.135000000
H    -4.445000000    -5.779000000     3.210000000
