201
-1232.75900
C    -4.264000000    -3.527000000    -0.333000000
H    -5.108000000    -3.461000000    -1.016000000
C    -3.866000000    -2.401000000     0.282000000
C    -2.913000000    -2.505000000     1.322000000
H    -2.497000000    -1.608000000     1.772000000
C    -4.170000000    -1.021000000    -0.299000000
O    -4.757000000    -1.019000000    -1.633000000
H    -3.166000000    -0.636000000    -0.528000000
O    -4.784000000    -0.124000000     0.682000000
C    -4.284000000     1.123000000     0.714000000
C    -3.660000000     1.404000000     1.919000000
H    -3.608000000     0.649000000     2.700000000
C    -3.054000000     2.621000000     2.176000000
O    -2.357000000     2.773000000     3.405000000
C    -3.121000000     3.655000000     1.245000000
C    -2.506000000     4.994000000     1.491000000
H    -2.830000000     5.747000000     0.769000000
C    -1.057000000     4.867000000     1.140000000
C    -0.646000000     4.937000000    -0.267000000
H    -1.360000000     5.159000000    -1.056000000
H    -2.743000000     5.258000000     2.524000000
C    -3.684000000     3.325000000     0.048000000
H    -3.826000000     4.150000000    -0.645000000
C    -4.310000000     2.068000000    -0.290000000
C    -5.068000000     1.824000000    -1.643000000
H    -5.273000000     2.836000000    -2.000000000
H    -6.016000000     1.349000000    -1.382000000
C    -4.162000000     1.088000000    -2.607000000
C    -3.393000000     1.813000000    -3.479000000
H    -3.566000000     2.867000000    -3.684000000
C    -4.018000000    -0.297000000    -2.508000000
C    -3.126000000    -0.958000000    -3.321000000
H    -3.139000000    -2.045000000    -3.347000000
C    -2.311000000    -0.228000000    -4.119000000
O    -1.406000000    -0.883000000    -4.873000000
C    -0.117000000    -0.954000000    -4.253000000
C     0.427000000    -2.392000000    -4.271000000
C     1.766000000    -2.618000000    -4.060000000
H     2.435000000    -1.783000000    -3.869000000
C    -0.489000000    -3.459000000    -4.329000000
H    -1.559000000    -3.353000000    -4.490000000
O     0.779000000     0.023000000    -4.831000000
H    -0.234000000    -0.784000000    -3.172000000
C    -2.427000000     1.167000000    -4.260000000
C    -1.446000000     1.909000000    -5.090000000
H    -1.915000000     2.819000000    -5.471000000
H    -1.206000000     1.310000000    -5.970000000
C    -0.185000000     2.176000000    -4.279000000
C    -0.089000000     3.416000000    -3.564000000
H    -0.953000000     4.076000000    -3.571000000
C     0.812000000     1.236000000    -4.158000000
C     1.983000000     1.496000000    -3.453000000
H     2.780000000     0.757000000    -3.454000000
C     2.117000000     2.707000000    -2.835000000
O     3.231000000     2.828000000    -2.083000000
C     3.031000000     2.712000000    -0.693000000
C     4.171000000     1.903000000    -0.094000000
C     4.618000000     0.752000000    -0.607000000
H     4.252000000     0.526000000    -1.606000000
C     4.631000000     2.257000000     1.215000000
H     4.345000000     3.218000000     1.635000000
O     2.853000000     3.998000000    -0.010000000
H     2.174000000     2.045000000    -0.516000000
C     1.041000000     3.618000000    -2.834000000
C     1.074000000     4.942000000    -2.092000000
H     0.440000000     5.625000000    -2.660000000
H     2.017000000     5.482000000    -2.200000000
C     0.690000000     4.745000000    -0.643000000
C     1.566000000     4.364000000     0.316000000
C     1.170000000     4.235000000     1.650000000
H     1.898000000     3.904000000     2.386000000
C    -0.087000000     4.497000000     2.071000000
O    -0.444000000     4.131000000     3.318000000
C    -0.897000000     2.779000000     3.421000000
H    -0.612000000     2.251000000     2.500000000
C    -0.253000000     2.042000000     4.635000000
C    -0.789000000     0.847000000     5.247000000
H    -1.777000000     0.637000000     4.847000000
C     1.006000000     2.448000000     5.147000000
H     1.398000000     3.411000000     4.832000000
C     1.672000000     1.669000000     6.169000000
O     2.842000000     2.108000000     6.762000000
C     1.147000000     0.501000000     6.648000000
H     1.656000000    -0.074000000     7.417000000
C    -0.083000000     0.082000000     6.134000000
O    -0.707000000    -1.007000000     6.672000000
C    -1.425000000    -1.985000000     5.944000000
C    -1.076000000    -2.349000000     4.633000000
H    -0.179000000    -1.937000000     4.178000000
C    -2.571000000    -2.619000000     6.476000000
H    -2.821000000    -2.377000000     7.506000000
C    -3.296000000    -3.524000000     5.766000000
H    -4.182000000    -3.937000000     6.240000000
C    -2.822000000    -3.913000000     4.519000000
H    -3.423000000    -4.648000000     3.989000000
C    -1.710000000    -3.404000000     3.958000000
O    -1.437000000    -3.708000000     2.616000000
C    -2.373000000    -3.752000000     1.616000000
C    -2.766000000    -4.931000000     1.018000000
H    -2.329000000    -5.901000000     1.240000000
C    -3.792000000    -4.786000000     0.082000000
O    -4.253000000    -5.911000000    -0.575000000
C    -3.887000000    -6.067000000    -1.942000000
C    -2.535000000    -5.961000000    -2.335000000
H    -1.782000000    -6.012000000    -1.552000000
C    -4.847000000    -6.157000000    -2.960000000
H    -5.898000000    -6.233000000    -2.693000000
C    -4.394000000    -6.034000000    -4.261000000
H    -5.115000000    -6.276000000    -5.037000000
C    -3.060000000    -5.855000000    -4.658000000
H    -2.652000000    -5.858000000    -5.666000000
C    -2.152000000    -5.830000000    -3.654000000
O    -0.778000000    -5.900000000    -3.909000000
C    -0.008000000    -4.748000000    -4.152000000
C     1.368000000    -4.968000000    -4.007000000
H     1.564000000    -6.036000000    -3.952000000
C     2.274000000    -3.929000000    -3.926000000
O     3.631000000    -4.200000000    -3.737000000
C     4.538000000    -3.253000000    -3.331000000
C     4.815000000    -3.005000000    -2.001000000
H     4.265000000    -3.574000000    -1.256000000
C     5.177000000    -2.524000000    -4.317000000
H     4.926000000    -2.792000000    -5.340000000
C     6.034000000    -1.405000000    -4.042000000
H     6.520000000    -0.827000000    -4.825000000
C     6.219000000    -1.180000000    -2.670000000
H     6.734000000    -0.273000000    -2.363000000
C     5.534000000    -1.870000000    -1.646000000
O     5.551000000    -1.463000000    -0.336000000
C     5.452000000    -0.150000000     0.107000000
C     5.833000000     0.159000000     1.375000000
H     6.394000000    -0.571000000     1.953000000
C     5.422000000     1.369000000     1.939000000
O     6.021000000     1.840000000     3.094000000
C     5.323000000     2.624000000     4.003000000
C     5.839000000     3.838000000     4.360000000
H     6.662000000     4.244000000     3.777000000
C     5.320000000     4.519000000     5.457000000
H     5.867000000     5.390000000     5.808000000
C     4.304000000     3.893000000     6.243000000
H     3.805000000     4.337000000     7.101000000
C     3.829000000     2.628000000     5.916000000
C     4.412000000     1.945000000     4.837000000
H     4.275000000     0.895000000     4.589000000
O     0.892000000    -8.785000000     3.852000000
H     1.496000000    -9.168000000     4.488000000
H     0.494000000    -8.047000000     4.314000000
O    -0.514000000    -6.839000000     5.089000000
H    -0.520000000    -6.095000000     4.488000000
H    -1.417000000    -6.907000000     5.397000000
O     8.813000000    -1.034000000     1.843000000
H     8.401000000    -1.757000000     1.371000000
H     9.396000000    -1.460000000     2.472000000
O     6.860000000    -6.305000000     2.754000000
H     6.011000000    -6.199000000     3.182000000
H     6.903000000    -5.584000000     2.126000000
O     2.993000000    -1.983000000     6.347000000
H     3.065000000    -2.329000000     5.458000000
H     3.764000000    -1.426000000     6.451000000
O    -0.360000000    -7.987000000     0.676000000
H    -0.182000000    -7.275000000     1.290000000
H     0.213000000    -7.810000000    -0.070000000
O     0.858000000    -5.757000000     2.223000000
H     0.115000000    -5.164000000     2.114000000
H     1.625000000    -5.183000000     2.224000000
O     4.245000000    -5.711000000     3.617000000
H     3.821000000    -6.501000000     3.281000000
H     3.914000000    -5.007000000     3.060000000
O     4.098000000    -5.104000000     6.305000000
H     3.289000000    -5.554000000     6.547000000
H     4.176000000    -5.242000000     5.361000000
O     2.439000000    -8.950000000     1.654000000
H     1.872000000    -8.700000000     2.384000000
H     3.265000000    -8.498000000     1.828000000
O     3.449000000    -5.718000000     0.009000000
H     2.592000000    -6.144000000     0.020000000
H     3.367000000    -4.998000000     0.635000000
O     5.511000000    -3.443000000     8.009000000
H     4.766000000    -3.835000000     7.553000000
H     6.278000000    -3.760000000     7.532000000
O     1.767000000    -6.627000000     6.916000000
H     1.150000000    -6.644000000     6.184000000
H     1.301000000    -6.164000000     7.612000000
O     4.992000000    -8.184000000     0.539000000
H     4.721000000    -7.271000000     0.448000000
H     5.904000000    -8.136000000     0.823000000
O     9.017000000    -4.196000000     0.125000000
H     8.390000000    -4.036000000     0.830000000
H     9.829000000    -3.790000000     0.429000000
O     8.651000000    -2.607000000     4.780000000
H     7.964000000    -3.074000000     5.256000000
H     8.403000000    -1.685000000     4.845000000
O     1.471000000    -2.654000000     8.245000000
H     0.830000000    -1.947000000     8.325000000
H     1.983000000    -2.426000000     7.469000000
O     5.642000000    -2.758000000     4.448000000
H     5.303000000    -3.644000000     4.582000000
H     4.913000000    -2.280000000     4.053000000
O     6.821000000    -3.322000000     1.700000000
H     6.418000000    -3.368000000     2.567000000
H     6.187000000    -2.842000000     1.166000000
