201
-1229.38654
C    -0.521000000     3.381000000     3.241000000
H    -0.893000000     3.779000000     2.300000000
C     0.797000000     2.968000000     3.396000000
C     1.257000000     2.322000000     4.528000000
H     2.233000000     1.846000000     4.503000000
C     1.714000000     3.120000000     2.179000000
O     1.592000000     4.394000000     1.548000000
H     1.402000000     2.363000000     1.444000000
O     3.085000000     2.938000000     2.487000000
C     3.808000000     2.106000000     1.634000000
C     4.033000000     0.828000000     2.044000000
H     3.710000000     0.395000000     2.987000000
C     4.507000000    -0.139000000     1.105000000
O     4.670000000    -1.423000000     1.549000000
C     4.893000000     0.214000000    -0.195000000
C     5.383000000    -0.820000000    -1.135000000
H     6.008000000    -0.343000000    -1.893000000
C     4.337000000    -1.571000000    -1.874000000
C     3.812000000    -1.043000000    -3.009000000
H     4.307000000    -0.172000000    -3.430000000
H     5.999000000    -1.475000000    -0.517000000
C     4.804000000     1.560000000    -0.578000000
H     5.106000000     1.906000000    -1.564000000
C     4.130000000     2.433000000     0.303000000
C     3.876000000     3.818000000    -0.267000000
H     4.629000000     4.139000000    -0.990000000
H     4.052000000     4.602000000     0.473000000
C     2.436000000     4.047000000    -0.736000000
C     2.236000000     4.015000000    -2.104000000
H     3.030000000     3.703000000    -2.777000000
C     1.436000000     4.328000000     0.180000000
C     0.129000000     4.361000000    -0.391000000
H    -0.734000000     4.501000000     0.255000000
C    -0.112000000     4.410000000    -1.771000000
O    -1.342000000     4.434000000    -2.260000000
C    -2.011000000     3.169000000    -2.433000000
C    -3.459000000     3.091000000    -1.893000000
C    -4.351000000     2.074000000    -2.261000000
H    -4.001000000     1.381000000    -3.022000000
C    -3.821000000     4.013000000    -0.924000000
H    -3.212000000     4.902000000    -0.783000000
O    -1.988000000     2.744000000    -3.803000000
H    -1.542000000     2.416000000    -1.782000000
C     0.932000000     4.158000000    -2.655000000
C     0.751000000     3.845000000    -4.128000000
H     1.716000000     3.944000000    -4.629000000
H     0.031000000     4.485000000    -4.643000000
C     0.341000000     2.380000000    -4.359000000
C     1.337000000     1.402000000    -4.579000000
H     2.363000000     1.758000000    -4.626000000
C    -0.979000000     1.939000000    -4.175000000
C    -1.300000000     0.572000000    -4.316000000
H    -2.249000000     0.245000000    -3.898000000
C    -0.349000000    -0.390000000    -4.484000000
O    -0.763000000    -1.670000000    -4.412000000
C    -0.454000000    -2.351000000    -3.250000000
C    -1.567000000    -3.220000000    -2.745000000
C    -2.913000000    -3.042000000    -3.203000000
H    -3.225000000    -2.197000000    -3.811000000
C    -1.282000000    -4.404000000    -1.987000000
H    -0.267000000    -4.567000000    -1.634000000
O     0.780000000    -3.111000000    -3.345000000
H    -0.125000000    -1.674000000    -2.448000000
C     1.006000000     0.030000000    -4.678000000
C     2.176000000    -0.972000000    -4.849000000
H     2.917000000    -0.422000000    -5.434000000
H     1.887000000    -1.861000000    -5.414000000
C     2.658000000    -1.523000000    -3.561000000
C     2.055000000    -2.642000000    -3.010000000
C     2.590000000    -3.136000000    -1.784000000
H     1.942000000    -3.857000000    -1.293000000
C     3.721000000    -2.671000000    -1.242000000
O     4.116000000    -3.207000000    -0.061000000
C     3.710000000    -2.422000000     1.106000000
H     2.815000000    -1.842000000     0.834000000
C     3.204000000    -3.340000000     2.194000000
C     3.179000000    -2.750000000     3.505000000
H     3.642000000    -1.787000000     3.708000000
C     2.429000000    -4.458000000     1.913000000
H     2.394000000    -4.897000000     0.919000000
C     1.856000000    -5.144000000     3.010000000
O     1.040000000    -6.301000000     2.829000000
C     1.971000000    -4.569000000     4.283000000
H     1.388000000    -5.041000000     5.070000000
C     2.546000000    -3.348000000     4.549000000
O     2.596000000    -3.030000000     5.844000000
C     2.727000000    -1.724000000     6.228000000
C     1.625000000    -0.865000000     6.256000000
H     0.671000000    -1.239000000     5.894000000
C     4.035000000    -1.277000000     6.409000000
H     4.834000000    -2.000000000     6.269000000
C     4.166000000     0.062000000     6.763000000
H     5.167000000     0.487000000     6.777000000
C     3.053000000     0.889000000     6.998000000
H     3.125000000     1.902000000     7.384000000
C     1.746000000     0.434000000     6.705000000
O     0.727000000     1.375000000     6.747000000
C     0.373000000     2.030000000     5.569000000
C    -0.913000000     2.516000000     5.460000000
H    -1.639000000     2.266000000     6.229000000
C    -1.390000000     3.182000000     4.298000000
O    -2.722000000     3.563000000     4.249000000
C    -3.161000000     4.511000000     3.370000000
C    -4.024000000     4.127000000     2.350000000
H    -4.344000000     3.090000000     2.297000000
C    -2.788000000     5.872000000     3.558000000
H    -2.126000000     6.079000000     4.395000000
C    -3.507000000     6.842000000     2.885000000
H    -3.259000000     7.890000000     3.034000000
C    -4.417000000     6.457000000     1.900000000
H    -4.852000000     7.199000000     1.235000000
C    -4.570000000     5.146000000     1.536000000
O    -5.485000000     4.765000000     0.578000000
C    -5.076000000     3.834000000    -0.319000000
C    -5.918000000     2.833000000    -0.684000000
H    -6.961000000     2.846000000    -0.380000000
C    -5.549000000     1.884000000    -1.583000000
O    -6.434000000     0.917000000    -1.936000000
C    -6.354000000    -0.164000000    -2.776000000
C    -5.842000000    -1.402000000    -2.287000000
H    -5.470000000    -1.577000000    -1.280000000
C    -6.702000000     0.026000000    -4.034000000
H    -7.218000000     0.933000000    -4.338000000
C    -6.592000000    -0.966000000    -5.041000000
H    -6.964000000    -0.789000000    -6.047000000
C    -6.187000000    -2.260000000    -4.652000000
H    -5.965000000    -3.056000000    -5.358000000
C    -5.770000000    -2.402000000    -3.274000000
O    -5.224000000    -3.661000000    -3.073000000
C    -3.891000000    -3.913000000    -2.752000000
C    -3.676000000    -5.012000000    -1.956000000
H    -4.514000000    -5.639000000    -1.664000000
C    -2.310000000    -5.330000000    -1.633000000
O    -2.109000000    -6.521000000    -0.855000000
C    -0.851000000    -6.816000000    -0.299000000
C     0.093000000    -7.529000000    -1.005000000
H    -0.010000000    -7.801000000    -2.052000000
C     1.321000000    -7.874000000    -0.415000000
H     2.072000000    -8.420000000    -0.980000000
C     1.643000000    -7.493000000     0.884000000
H     2.555000000    -7.838000000     1.364000000
C     0.707000000    -6.737000000     1.568000000
C    -0.577000000    -6.446000000     1.007000000
H    -1.307000000    -5.854000000     1.553000000
O    -7.110000000    -3.166000000     1.112000000
H    -6.191000000    -2.922000000     1.224000000
H    -7.086000000    -4.098000000     0.896000000
O    -8.532000000    -1.816000000     3.357000000
H    -8.267000000    -2.388000000     2.636000000
H    -7.739000000    -1.710000000     3.882000000
O    -5.333000000    -1.104000000     6.106000000
H    -5.298000000    -0.329000000     5.545000000
H    -5.263000000    -1.842000000     5.501000000
O    -3.521000000    -4.226000000     6.227000000
H    -4.302000000    -4.574000000     5.797000000
H    -2.889000000    -4.110000000     5.518000000
O    -3.842000000    -8.614000000     1.437000000
H    -2.976000000    -8.678000000     1.840000000
H    -4.061000000    -7.684000000     1.486000000
O    -3.184000000    -7.413000000     5.027000000
H    -2.999000000    -7.370000000     4.089000000
H    -2.374000000    -7.745000000     5.416000000
O    -5.827000000    -2.563000000     3.974000000
H    -5.728000000    -2.140000000     3.121000000
H    -5.588000000    -3.476000000     3.817000000
O    -8.562000000     0.751000000     4.938000000
H    -8.411000000    -0.104000000     4.535000000
H    -8.757000000     1.332000000     4.203000000
O    -2.527000000    -0.345000000     4.019000000
H    -2.141000000    -0.154000000     3.164000000
H    -3.471000000    -0.351000000     3.860000000
O    -2.765000000    -0.255000000     6.949000000
H    -2.444000000     0.018000000     6.090000000
H    -3.549000000    -0.770000000     6.759000000
O    -1.334000000    -5.508000000     6.799000000
H    -1.484000000    -6.414000000     6.531000000
H    -2.054000000    -5.018000000     6.403000000
O    -9.387000000    -2.024000000     0.187000000
H    -8.646000000    -2.533000000     0.515000000
H    -9.536000000    -2.360000000    -0.697000000
O    -6.496000000    -6.234000000     0.005000000
H    -7.238000000    -6.240000000     0.609000000
H    -6.747000000    -6.845000000    -0.688000000
O    -4.849000000     1.097000000     4.328000000
H    -4.839000000     2.042000000     4.478000000
H    -5.398000000     0.984000000     3.551000000
O    -5.569000000    -5.513000000     4.560000000
H    -6.342000000    -5.909000000     4.158000000
H    -4.850000000    -6.102000000     4.329000000
O    -6.182000000     0.435000000     2.049000000
H    -6.968000000     0.730000000     1.589000000
H    -5.882000000    -0.323000000     1.547000000
O    -7.410000000    -5.114000000    -2.313000000
H    -6.804000000    -4.426000000    -2.589000000
H    -7.249000000    -5.214000000    -1.375000000
O    -2.280000000    -3.711000000     3.983000000
H    -2.574000000    -3.803000000     3.077000000
H    -2.034000000    -2.789000000     4.063000000
O    -4.430000000    -6.012000000     1.920000000
H    -3.976000000    -5.183000000     2.067000000
H    -5.064000000    -5.819000000     1.229000000
