201
-1236.84752
C    -3.945000000    -3.563000000    -0.473000000
H    -4.274000000    -3.341000000    -1.485000000
C    -3.667000000    -2.435000000     0.326000000
C    -2.951000000    -2.575000000     1.506000000
H    -2.633000000    -1.749000000     2.137000000
C    -3.898000000    -0.987000000    -0.140000000
O    -4.685000000    -0.932000000    -1.357000000
H    -2.857000000    -0.690000000    -0.335000000
O    -4.612000000    -0.227000000     0.818000000
C    -4.316000000     1.073000000     0.994000000
C    -3.605000000     1.292000000     2.135000000
H    -3.380000000     0.562000000     2.908000000
C    -3.091000000     2.555000000     2.337000000
O    -2.362000000     2.742000000     3.529000000
C    -3.118000000     3.568000000     1.361000000
C    -2.491000000     4.955000000     1.547000000
H    -2.915000000     5.767000000     0.952000000
C    -0.982000000     4.802000000     1.133000000
C    -0.516000000     5.302000000    -0.108000000
H    -1.289000000     5.646000000    -0.791000000
H    -2.552000000     5.302000000     2.580000000
C    -3.847000000     3.306000000     0.243000000
H    -4.046000000     4.052000000    -0.522000000
C    -4.441000000     2.068000000     0.011000000
C    -5.132000000     1.841000000    -1.280000000
H    -5.416000000     2.825000000    -1.658000000
H    -6.026000000     1.247000000    -1.079000000
C    -4.178000000     1.233000000    -2.338000000
C    -3.291000000     2.031000000    -3.122000000
H    -3.455000000     3.105000000    -3.087000000
C    -4.102000000    -0.197000000    -2.354000000
C    -3.204000000    -0.842000000    -3.219000000
H    -3.207000000    -1.910000000    -3.420000000
C    -2.389000000    -0.026000000    -4.028000000
O    -1.468000000    -0.719000000    -4.832000000
C    -0.073000000    -0.831000000    -4.359000000
C     0.493000000    -2.234000000    -4.510000000
C     1.913000000    -2.353000000    -4.385000000
H     2.506000000    -1.448000000    -4.274000000
C    -0.274000000    -3.391000000    -4.435000000
H    -1.350000000    -3.277000000    -4.540000000
O     0.769000000     0.212000000    -4.859000000
H    -0.161000000    -0.712000000    -3.269000000
C    -2.441000000     1.358000000    -4.039000000
C    -1.520000000     2.177000000    -4.982000000
H    -1.897000000     3.171000000    -5.231000000
H    -1.329000000     1.623000000    -5.904000000
C    -0.231000000     2.393000000    -4.165000000
C    -0.112000000     3.520000000    -3.388000000
H    -0.891000000     4.275000000    -3.318000000
C     0.792000000     1.444000000    -4.280000000
C     1.880000000     1.708000000    -3.491000000
H     2.737000000     1.045000000    -3.405000000
C     2.075000000     2.879000000    -2.807000000
O     3.286000000     2.882000000    -2.036000000
C     3.104000000     2.710000000    -0.676000000
C     4.036000000     1.770000000     0.059000000
C     4.310000000     0.554000000    -0.538000000
H     3.766000000     0.315000000    -1.448000000
C     4.759000000     2.223000000     1.135000000
H     4.584000000     3.210000000     1.555000000
O     2.905000000     3.967000000     0.041000000
H     2.133000000     2.197000000    -0.606000000
C     1.107000000     3.857000000    -2.772000000
C     1.126000000     5.135000000    -1.897000000
H     0.582000000     5.945000000    -2.389000000
H     2.166000000     5.469000000    -1.858000000
C     0.781000000     4.924000000    -0.523000000
C     1.676000000     4.369000000     0.372000000
C     1.297000000     4.082000000     1.690000000
H     2.093000000     3.666000000     2.303000000
C    -0.012000000     4.289000000     2.078000000
O    -0.401000000     3.858000000     3.287000000
C    -0.915000000     2.597000000     3.445000000
H    -0.597000000     2.026000000     2.560000000
C    -0.314000000     1.793000000     4.572000000
C    -1.028000000     0.739000000     5.225000000
H    -2.103000000     0.617000000     5.124000000
C     1.056000000     1.829000000     4.844000000
H     1.751000000     2.271000000     4.135000000
C     1.576000000     0.995000000     5.860000000
O     2.976000000     1.017000000     6.212000000
C     0.815000000     0.122000000     6.599000000
H     1.320000000    -0.489000000     7.344000000
C    -0.502000000     0.010000000     6.261000000
O    -1.265000000    -0.933000000     6.970000000
C    -2.032000000    -1.851000000     6.240000000
C    -1.662000000    -2.418000000     4.990000000
H    -0.662000000    -2.315000000     4.575000000
C    -3.285000000    -2.128000000     6.767000000
H    -3.582000000    -1.752000000     7.743000000
C    -4.179000000    -3.001000000     6.095000000
H    -5.102000000    -3.356000000     6.545000000
C    -3.778000000    -3.587000000     4.847000000
H    -4.386000000    -4.328000000     4.334000000
C    -2.520000000    -3.311000000     4.327000000
O    -2.040000000    -3.993000000     3.240000000
C    -2.754000000    -3.851000000     1.989000000
C    -3.078000000    -4.981000000     1.220000000
H    -2.828000000    -5.933000000     1.680000000
C    -3.650000000    -4.861000000    -0.047000000
O    -3.828000000    -5.917000000    -0.865000000
C    -3.469000000    -5.823000000    -2.114000000
C    -2.176000000    -5.634000000    -2.517000000
H    -1.424000000    -5.399000000    -1.769000000
C    -4.458000000    -6.258000000    -3.075000000
H    -5.470000000    -6.522000000    -2.779000000
C    -4.071000000    -6.274000000    -4.406000000
H    -4.866000000    -6.384000000    -5.140000000
C    -2.694000000    -6.054000000    -4.812000000
H    -2.376000000    -6.128000000    -5.848000000
C    -1.788000000    -5.802000000    -3.826000000
O    -0.500000000    -5.726000000    -4.166000000
C     0.329000000    -4.606000000    -4.271000000
C     1.714000000    -4.726000000    -4.300000000
H     2.066000000    -5.754000000    -4.256000000
C     2.504000000    -3.632000000    -4.366000000
O     3.929000000    -3.732000000    -4.534000000
C     4.790000000    -2.865000000    -3.920000000
C     4.672000000    -2.616000000    -2.551000000
H     3.797000000    -2.929000000    -1.987000000
C     5.822000000    -2.337000000    -4.704000000
H     5.817000000    -2.450000000    -5.785000000
C     6.765000000    -1.526000000    -4.036000000
H     7.530000000    -1.163000000    -4.717000000
C     6.671000000    -1.268000000    -2.625000000
H     7.437000000    -0.684000000    -2.122000000
C     5.624000000    -1.841000000    -1.889000000
O     5.540000000    -1.565000000    -0.505000000
C     5.385000000    -0.231000000    -0.085000000
C     6.012000000     0.179000000     1.123000000
H     6.689000000    -0.502000000     1.633000000
C     5.749000000     1.406000000     1.728000000
O     6.290000000     1.711000000     2.937000000
C     5.491000000     2.204000000     3.941000000
C     5.554000000     3.588000000     4.249000000
H     6.175000000     4.274000000     3.679000000
C     4.725000000     4.099000000     5.267000000
H     4.795000000     5.161000000     5.487000000
C     3.731000000     3.297000000     5.867000000
H     3.065000000     3.684000000     6.634000000
C     3.835000000     1.949000000     5.620000000
C     4.805000000     1.386000000     4.714000000
H     4.704000000     0.370000000     4.342000000
O     0.789000000    -8.538000000     3.934000000
H     0.984000000    -8.529000000     4.871000000
H     0.600000000    -7.625000000     3.720000000
O     7.700000000    -3.036000000     2.299000000
H     8.012000000    -2.703000000     3.141000000
H     6.811000000    -3.344000000     2.478000000
O    -0.706000000    -6.782000000     5.484000000
H    -0.396000000    -6.051000000     4.949000000
H    -1.473000000    -7.113000000     5.016000000
O     5.224000000    -7.728000000     4.843000000
H     4.582000000    -8.420000000     5.002000000
H     5.009000000    -7.397000000     3.972000000
O     2.209000000    -3.671000000     4.535000000
H     2.552000000    -3.284000000     3.730000000
H     2.979000000    -3.792000000     5.090000000
O    -0.831000000    -8.411000000     1.242000000
H    -0.777000000    -8.303000000     2.192000000
H     0.057000000    -8.239000000     0.930000000
O     0.495000000    -5.798000000     3.370000000
H     0.420000000    -5.757000000     2.416000000
H     0.962000000    -4.996000000     3.608000000
O     0.974000000    -8.879000000    -2.413000000
H     0.099000000    -8.631000000    -2.113000000
H     1.515000000    -8.109000000    -2.235000000
O     4.344000000    -6.183000000     2.199000000
H     3.421000000    -6.054000000     1.980000000
H     4.812000000    -5.565000000     1.637000000
O     5.030000000    -4.837000000     5.452000000
H     4.265000000    -5.229000000     5.872000000
H     5.418000000    -5.552000000     4.947000000
O     2.917000000    -9.361000000     2.252000000
H     2.331000000    -9.030000000     2.932000000
H     2.540000000    -9.039000000     1.433000000
O     1.717000000    -7.518000000     0.356000000
H     2.394000000    -7.743000000    -0.282000000
H     1.818000000    -6.576000000     0.491000000
O     2.755000000    -6.025000000     6.653000000
H     2.651000000    -6.975000000     6.714000000
H     1.870000000    -5.679000000     6.762000000
O     8.797000000    -3.814000000    -0.083000000
H     8.261000000    -3.808000000     0.710000000
H     9.574000000    -4.318000000     0.157000000
O     6.940000000    -5.339000000    -1.150000000
H     6.123000000    -4.961000000    -0.823000000
H     7.626000000    -4.792000000    -0.767000000
O     0.856000000    -3.930000000     7.132000000
H     1.784000000    -3.929000000     7.367000000
H     0.839000000    -3.631000000     6.223000000
O     3.556000000    -8.315000000    -1.338000000
H     3.948000000    -7.464000000    -1.534000000
H     3.962000000    -8.916000000    -1.964000000
O     5.298000000    -2.565000000     3.654000000
H     5.495000000    -3.183000000     4.358000000
H     4.445000000    -2.845000000     3.322000000
O     4.946000000    -4.207000000     0.279000000
H     4.289000000    -4.082000000     0.963000000
H     4.953000000    -3.380000000    -0.201000000
