201
-1246.20255
C     0.058000000     3.406000000     4.149000000
H    -0.293000000     4.254000000     3.567000000
C     1.035000000     2.505000000     3.682000000
C     1.227000000     1.271000000     4.428000000
H     1.950000000     0.529000000     4.099000000
C     1.755000000     2.795000000     2.369000000
O     1.724000000     4.143000000     1.992000000
H     1.284000000     2.075000000     1.684000000
O     3.163000000     2.473000000     2.467000000
C     3.755000000     1.717000000     1.545000000
C     3.956000000     0.376000000     1.710000000
H     3.541000000    -0.108000000     2.591000000
C     4.557000000    -0.390000000     0.748000000
O     4.750000000    -1.718000000     0.919000000
C     4.913000000     0.222000000    -0.508000000
C     5.365000000    -0.590000000    -1.686000000
H     5.880000000    -0.071000000    -2.497000000
C     4.170000000    -1.241000000    -2.400000000
C     3.605000000    -0.527000000    -3.491000000
H     4.091000000     0.372000000    -3.863000000
H     6.058000000    -1.366000000    -1.354000000
C     4.628000000     1.590000000    -0.681000000
H     4.876000000     2.055000000    -1.632000000
C     4.067000000     2.303000000     0.359000000
C     3.876000000     3.815000000     0.117000000
H     4.561000000     4.219000000    -0.632000000
H     4.024000000     4.388000000     1.034000000
C     2.463000000     4.106000000    -0.310000000
C     2.082000000     4.101000000    -1.643000000
H     2.781000000     3.866000000    -2.442000000
C     1.471000000     4.432000000     0.630000000
C     0.148000000     4.580000000     0.254000000
H    -0.552000000     4.649000000     1.083000000
C    -0.194000000     4.667000000    -1.053000000
O    -1.561000000     4.507000000    -1.350000000
C    -2.067000000     3.203000000    -1.604000000
C    -3.333000000     3.026000000    -0.824000000
C    -4.327000000     2.171000000    -1.323000000
H    -4.147000000     1.661000000    -2.265000000
C    -3.506000000     3.587000000     0.425000000
H    -2.767000000     4.325000000     0.729000000
O    -2.343000000     3.160000000    -2.988000000
H    -1.325000000     2.405000000    -1.454000000
C     0.798000000     4.378000000    -2.015000000
C     0.424000000     4.317000000    -3.492000000
H     1.344000000     4.517000000    -4.045000000
H    -0.245000000     5.090000000    -3.878000000
C    -0.062000000     2.960000000    -3.829000000
C     0.938000000     2.104000000    -4.425000000
H     1.934000000     2.483000000    -4.642000000
C    -1.332000000     2.428000000    -3.654000000
C    -1.642000000     1.121000000    -4.038000000
H    -2.678000000     0.820000000    -3.910000000
C    -0.665000000     0.273000000    -4.525000000
O    -0.905000000    -0.995000000    -4.726000000
C    -0.575000000    -2.001000000    -3.749000000
C    -1.674000000    -3.018000000    -3.417000000
C    -2.996000000    -2.537000000    -3.615000000
H    -3.119000000    -1.535000000    -4.017000000
C    -1.445000000    -4.216000000    -2.773000000
H    -0.463000000    -4.602000000    -2.512000000
O     0.670000000    -2.681000000    -4.131000000
H    -0.393000000    -1.465000000    -2.805000000
C     0.664000000     0.745000000    -4.711000000
C     1.881000000    -0.162000000    -5.169000000
H     2.653000000     0.259000000    -5.817000000
H     1.405000000    -0.932000000    -5.780000000
C     2.481000000    -1.040000000    -4.060000000
C     1.820000000    -2.176000000    -3.604000000
C     2.461000000    -2.897000000    -2.674000000
H     1.845000000    -3.656000000    -2.198000000
C     3.603000000    -2.467000000    -2.012000000
O     4.010000000    -3.115000000    -0.880000000
C     3.601000000    -2.442000000     0.399000000
H     2.785000000    -1.811000000     0.018000000
C     3.033000000    -3.431000000     1.423000000
C     3.393000000    -3.347000000     2.776000000
H     4.134000000    -2.616000000     3.091000000
C     2.069000000    -4.373000000     1.019000000
H     1.785000000    -4.505000000    -0.022000000
C     1.630000000    -5.330000000     1.980000000
O     0.749000000    -6.309000000     1.590000000
C     2.100000000    -5.340000000     3.310000000
H     1.693000000    -6.050000000     4.026000000
C     2.888000000    -4.295000000     3.709000000
O     3.143000000    -3.978000000     5.029000000
C     3.076000000    -2.718000000     5.660000000
C     1.909000000    -2.002000000     5.796000000
H     0.994000000    -2.379000000     5.347000000
C     4.337000000    -2.248000000     6.121000000
H     5.234000000    -2.857000000     6.196000000
C     4.327000000    -0.926000000     6.614000000
H     5.249000000    -0.455000000     6.944000000
C     3.155000000    -0.211000000     6.757000000
H     3.252000000     0.762000000     7.231000000
C     1.930000000    -0.735000000     6.299000000
O     0.833000000     0.020000000     6.477000000
C     0.630000000     1.162000000     5.685000000
C    -0.253000000     2.144000000     6.140000000
H    -0.725000000     1.966000000     7.103000000
C    -0.611000000     3.239000000     5.350000000
O    -1.648000000     4.095000000     5.740000000
C    -2.498000000     4.627000000     4.836000000
C    -3.342000000     3.851000000     4.088000000
H    -3.393000000     2.768000000     4.153000000
C    -2.312000000     6.003000000     4.613000000
H    -1.653000000     6.597000000     5.240000000
C    -3.115000000     6.668000000     3.654000000
H    -2.995000000     7.727000000     3.442000000
C    -4.046000000     5.941000000     2.932000000
H    -4.576000000     6.481000000     2.152000000
C    -4.098000000     4.567000000     3.183000000
O    -4.964000000     3.896000000     2.378000000
C    -4.654000000     3.260000000     1.198000000
C    -5.616000000     2.430000000     0.667000000
H    -6.480000000     2.083000000     1.229000000
C    -5.431000000     1.848000000    -0.577000000
O    -6.444000000     1.055000000    -1.088000000
C    -6.284000000     0.408000000    -2.318000000
C    -6.033000000    -0.943000000    -2.355000000
H    -6.083000000    -1.554000000    -1.458000000
C    -6.415000000     1.191000000    -3.502000000
H    -6.504000000     2.272000000    -3.432000000
C    -6.330000000     0.573000000    -4.787000000
H    -6.496000000     1.154000000    -5.691000000
C    -5.945000000    -0.833000000    -4.794000000
H    -5.940000000    -1.212000000    -5.813000000
C    -5.805000000    -1.556000000    -3.628000000
O    -5.335000000    -2.864000000    -3.646000000
C    -4.065000000    -3.378000000    -3.352000000
C    -3.879000000    -4.646000000    -2.843000000
H    -4.690000000    -5.354000000    -2.693000000
C    -2.558000000    -4.983000000    -2.484000000
O    -2.422000000    -6.261000000    -1.945000000
C    -1.233000000    -6.788000000    -1.384000000
C    -0.663000000    -7.934000000    -1.907000000
H    -1.049000000    -8.320000000    -2.848000000
C     0.502000000    -8.482000000    -1.333000000
H     0.930000000    -9.356000000    -1.818000000
C     1.040000000    -7.931000000    -0.153000000
H     1.870000000    -8.331000000     0.424000000
C     0.334000000    -6.773000000     0.366000000
C    -0.764000000    -6.277000000    -0.222000000
H    -1.403000000    -5.537000000     0.252000000
O    -6.502000000    -4.474000000    -0.959000000
H    -5.613000000    -4.260000000    -0.676000000
H    -6.704000000    -5.298000000    -0.515000000
O    -5.280000000    -2.151000000     6.628000000
H    -4.576000000    -2.160000000     7.276000000
H    -4.985000000    -2.753000000     5.945000000
O    -0.504000000    -4.797000000     6.050000000
H    -0.864000000    -4.897000000     5.169000000
H     0.177000000    -5.466000000     6.109000000
O    -4.045000000    -8.442000000     1.634000000
H    -4.682000000    -9.155000000     1.673000000
H    -4.576000000    -7.651000000     1.536000000
O    -8.198000000    -4.769000000    -3.055000000
H    -7.642000000    -4.649000000    -2.285000000
H    -7.587000000    -4.796000000    -3.791000000
O    -1.322000000    -9.282000000     1.088000000
H    -2.178000000    -8.902000000     0.887000000
H    -0.703000000    -8.566000000     0.944000000
O    -3.024000000    -8.046000000     4.091000000
H    -3.501000000    -8.178000000     3.271000000
H    -2.539000000    -7.232000000     3.957000000
O    -4.772000000    -6.679000000     6.689000000
H    -5.566000000    -6.161000000     6.821000000
H    -4.646000000    -6.685000000     5.740000000
O    -3.777000000    -3.230000000     4.534000000
H    -3.451000000    -3.805000000     3.842000000
H    -3.439000000    -2.364000000     4.305000000
O    -1.995000000    -0.441000000     3.158000000
H    -1.313000000    -0.161000000     2.547000000
H    -2.716000000    -0.728000000     2.598000000
O    -2.552000000     0.344000000     5.651000000
H    -1.940000000    -0.139000000     6.207000000
H    -2.497000000    -0.092000000     4.800000000
O    -8.363000000    -2.644000000    -0.130000000
H    -7.823000000    -3.392000000    -0.385000000
H    -8.972000000    -2.997000000     0.518000000
O    -7.099000000    -7.884000000    -0.422000000
H    -6.697000000    -7.560000000     0.385000000
H    -6.508000000    -8.574000000    -0.723000000
O    -4.831000000    -0.725000000     3.296000000
H    -5.247000000    -0.919000000     2.456000000
H    -5.066000000     0.186000000     3.475000000
O    -5.985000000    -5.844000000     4.096000000
H    -6.328000000    -4.966000000     4.267000000
H    -6.612000000    -6.432000000     4.516000000
O    -6.680000000    -3.475000000     3.567000000
H    -6.652000000    -3.082000000     2.695000000
H    -5.921000000    -3.106000000     4.020000000
O    -6.222000000    -1.507000000     1.190000000
H    -7.028000000    -1.498000000     0.673000000
H    -5.720000000    -2.242000000     0.839000000
O    -1.470000000    -5.490000000     3.556000000
H    -2.114000000    -5.188000000     2.915000000
H    -0.690000000    -5.686000000     3.038000000
O    -5.642000000    -6.149000000     1.367000000
H    -5.039000000    -5.427000000     1.189000000
H    -5.898000000    -6.028000000     2.281000000
