201
-1242.56845
C    -1.991000000     3.103000000     3.883000000
H    -2.120000000     4.023000000     3.318000000
C    -0.772000000     2.391000000     3.852000000
C    -0.607000000     1.198000000     4.582000000
H     0.311000000     0.617000000     4.540000000
C     0.340000000     2.884000000     3.027000000
O     0.014000000     4.233000000     2.575000000
H     0.432000000     2.230000000     2.147000000
O     1.662000000     2.932000000     3.678000000
C     2.744000000     2.564000000     2.962000000
C     3.123000000     1.225000000     3.125000000
H     2.754000000     0.642000000     3.965000000
C     4.067000000     0.628000000     2.313000000
O     4.393000000    -0.696000000     2.579000000
C     4.524000000     1.361000000     1.147000000
C     5.482000000     0.734000000     0.214000000
H     6.021000000     1.503000000    -0.345000000
C     4.697000000    -0.046000000    -0.839000000
C     4.305000000     0.589000000    -2.015000000
H     4.581000000     1.631000000    -2.157000000
H     6.121000000     0.011000000     0.725000000
C     4.136000000     2.727000000     0.918000000
H     4.351000000     3.393000000     0.086000000
C     3.233000000     3.300000000     1.875000000
C     2.629000000     4.697000000     1.525000000
H     3.418000000     5.219000000     0.979000000
H     2.314000000     5.258000000     2.407000000
C     1.411000000     4.615000000     0.625000000
C     1.472000000     4.637000000    -0.762000000
H     2.393000000     4.633000000    -1.339000000
C     0.168000000     4.411000000     1.240000000
C    -0.948000000     4.427000000     0.436000000
H    -1.951000000     4.317000000     0.840000000
C    -0.887000000     4.503000000    -0.931000000
O    -2.068000000     4.259000000    -1.643000000
C    -2.306000000     2.923000000    -2.110000000
C    -3.722000000     2.435000000    -1.923000000
C    -4.210000000     1.342000000    -2.624000000
H    -3.569000000     0.922000000    -3.394000000
C    -4.497000000     3.005000000    -0.894000000
H    -4.018000000     3.720000000    -0.230000000
O    -1.935000000     2.865000000    -3.563000000
H    -1.682000000     2.204000000    -1.559000000
C     0.323000000     4.516000000    -1.592000000
C     0.438000000     4.533000000    -3.125000000
H     1.363000000     5.012000000    -3.455000000
H    -0.411000000     5.105000000    -3.505000000
C     0.488000000     3.130000000    -3.705000000
C     1.710000000     2.611000000    -3.960000000
H     2.578000000     3.243000000    -3.786000000
C    -0.647000000     2.383000000    -3.904000000
C    -0.525000000     1.106000000    -4.337000000
H    -1.406000000     0.479000000    -4.452000000
C     0.703000000     0.535000000    -4.575000000
O     0.701000000    -0.796000000    -4.883000000
C     1.025000000    -1.648000000    -3.781000000
C     0.198000000    -2.906000000    -3.835000000
C    -1.177000000    -2.846000000    -3.903000000
H    -1.643000000    -1.867000000    -3.977000000
C     0.800000000    -4.172000000    -3.442000000
H     1.866000000    -4.252000000    -3.245000000
O     2.389000000    -1.971000000    -3.838000000
H     0.814000000    -1.202000000    -2.798000000
C     1.855000000     1.282000000    -4.390000000
C     3.247000000     0.720000000    -4.365000000
H     3.907000000     1.515000000    -4.720000000
H     3.277000000     0.010000000    -5.195000000
C     3.641000000    -0.057000000    -3.037000000
C     3.180000000    -1.368000000    -2.843000000
C     3.471000000    -1.934000000    -1.654000000
H     3.138000000    -2.965000000    -1.565000000
C     4.244000000    -1.353000000    -0.640000000
O     4.530000000    -1.998000000     0.522000000
C     3.788000000    -1.695000000     1.714000000
H     2.815000000    -1.359000000     1.327000000
C     3.400000000    -2.997000000     2.461000000
C     2.804000000    -2.965000000     3.712000000
H     2.652000000    -1.985000000     4.155000000
C     3.224000000    -4.171000000     1.712000000
H     3.513000000    -4.189000000     0.664000000
C     2.663000000    -5.333000000     2.267000000
O     2.256000000    -6.386000000     1.450000000
C     2.208000000    -5.336000000     3.591000000
H     1.646000000    -6.158000000     4.028000000
C     2.191000000    -4.121000000     4.255000000
O     1.538000000    -4.030000000     5.454000000
C     1.290000000    -2.849000000     6.061000000
C    -0.003000000    -2.305000000     5.808000000
H    -0.647000000    -2.851000000     5.124000000
C     2.216000000    -2.153000000     6.844000000
H     3.225000000    -2.546000000     6.941000000
C     1.861000000    -0.933000000     7.364000000
H     2.584000000    -0.280000000     7.847000000
C     0.593000000    -0.407000000     7.107000000
H     0.321000000     0.544000000     7.559000000
C    -0.366000000    -1.104000000     6.390000000
O    -1.536000000    -0.515000000     6.006000000
C    -1.691000000     0.675000000     5.307000000
C    -2.974000000     1.348000000     5.366000000
H    -3.865000000     0.935000000     5.834000000
C    -3.071000000     2.555000000     4.660000000
O    -4.268000000     3.272000000     4.700000000
C    -4.741000000     3.911000000     3.603000000
C    -5.424000000     3.214000000     2.617000000
H    -5.390000000     2.129000000     2.570000000
C    -4.657000000     5.288000000     3.573000000
H    -4.062000000     5.804000000     4.323000000
C    -5.284000000     5.879000000     2.455000000
H    -5.049000000     6.905000000     2.182000000
C    -5.928000000     5.145000000     1.391000000
H    -6.540000000     5.607000000     0.622000000
C    -5.952000000     3.809000000     1.534000000
O    -6.486000000     3.010000000     0.503000000
C    -5.796000000     2.600000000    -0.575000000
C    -6.272000000     1.537000000    -1.309000000
H    -7.220000000     1.119000000    -0.980000000
C    -5.479000000     0.885000000    -2.276000000
O    -6.122000000    -0.128000000    -2.989000000
C    -5.473000000    -0.992000000    -3.847000000
C    -4.718000000    -2.090000000    -3.353000000
H    -4.893000000    -2.267000000    -2.295000000
C    -5.392000000    -0.658000000    -5.196000000
H    -5.835000000     0.273000000    -5.539000000
C    -4.792000000    -1.482000000    -6.113000000
H    -4.920000000    -1.370000000    -7.187000000
C    -3.968000000    -2.503000000    -5.651000000
H    -3.427000000    -3.164000000    -6.324000000
C    -3.953000000    -2.806000000    -4.248000000
O    -3.322000000    -3.960000000    -3.817000000
C    -1.940000000    -4.011000000    -3.771000000
C    -1.298000000    -5.253000000    -3.506000000
H    -1.762000000    -6.234000000    -3.447000000
C     0.039000000    -5.326000000    -3.264000000
O     0.591000000    -6.508000000    -2.974000000
C     1.683000000    -6.593000000    -2.163000000
C     2.884000000    -7.115000000    -2.587000000
H     3.026000000    -7.376000000    -3.632000000
C     3.918000000    -7.351000000    -1.746000000
H     4.827000000    -7.829000000    -2.103000000
C     3.749000000    -7.035000000    -0.392000000
H     4.590000000    -7.191000000     0.279000000
C     2.528000000    -6.541000000     0.094000000
C     1.507000000    -6.346000000    -0.828000000
H     0.488000000    -6.117000000    -0.527000000
O    -1.497000000    -7.690000000     0.847000000
H    -1.908000000    -8.551000000     0.772000000
H    -0.969000000    -7.744000000     1.643000000
O    -7.636000000    -4.199000000     0.206000000
H    -7.353000000    -4.077000000     1.113000000
H    -8.032000000    -5.070000000     0.194000000
O    -7.568000000    -5.955000000     4.433000000
H    -7.446000000    -5.300000000     3.746000000
H    -8.517000000    -6.058000000     4.500000000
O    -1.073000000    -4.685000000     3.681000000
H    -0.398000000    -4.396000000     3.066000000
H    -1.899000000    -4.460000000     3.254000000
O    -5.317000000    -0.306000000     3.508000000
H    -4.612000000    -0.904000000     3.258000000
H    -6.014000000    -0.479000000     2.876000000
O    -4.047000000    -4.686000000     6.950000000
H    -3.703000000    -4.178000000     6.215000000
H    -4.996000000    -4.578000000     6.892000000
O    -3.559000000    -5.725000000    -0.272000000
H    -2.878000000    -6.305000000     0.067000000
H    -3.516000000    -4.950000000     0.289000000
O    -2.360000000    -6.746000000     4.823000000
H    -3.130000000    -6.227000000     5.057000000
H    -1.803000000    -6.140000000     4.334000000
O    -0.372000000    -8.235000000     3.104000000
H    -1.256000000    -8.222000000     3.470000000
H     0.205000000    -8.191000000     3.867000000
O    -6.775000000     1.003000000     5.452000000
H    -6.161000000     0.612000000     4.830000000
H    -6.748000000     0.423000000     6.212000000
O    -4.545000000    -5.501000000     3.315000000
H    -3.926000000    -4.935000000     2.854000000
H    -5.407000000    -5.176000000     3.055000000
O    -6.142000000    -4.997000000    -1.946000000
H    -6.585000000    -4.771000000    -1.128000000
H    -5.221000000    -5.087000000    -1.702000000
O    -4.469000000    -7.982000000     1.572000000
H    -4.383000000    -7.635000000     2.459000000
H    -4.543000000    -7.206000000     1.017000000
O    -6.489000000    -3.725000000     2.805000000
H    -6.978000000    -3.026000000     3.239000000
H    -5.713000000    -3.290000000     2.451000000
O    -7.792000000    -0.305000000     1.813000000
H    -7.888000000    -0.254000000     0.862000000
H    -8.308000000    -1.071000000     2.066000000
O    -3.760000000    -2.933000000     4.851000000
H    -3.905000000    -3.190000000     3.941000000
H    -3.263000000    -2.117000000     4.794000000
O    -6.855000000    -4.729000000     6.712000000
H    -7.686000000    -4.956000000     7.130000000
H    -6.874000000    -5.193000000     5.875000000
O    -8.973000000    -1.856000000    -0.754000000
H    -9.757000000    -1.873000000    -0.205000000
H    -8.494000000    -2.649000000    -0.512000000
O    -6.596000000    -2.361000000     5.481000000
H    -6.505000000    -3.241000000     5.847000000
H    -5.772000000    -2.208000000     5.019000000
