201
-1243.68015
C    -1.528000000     2.162000000     3.849000000
H    -1.872000000     2.692000000     2.964000000
C    -0.147000000     1.943000000     4.043000000
C     0.328000000     1.093000000     5.015000000
H     1.402000000     0.928000000     5.050000000
C     0.800000000     2.742000000     3.087000000
O     0.270000000     4.044000000     2.765000000
H     1.024000000     2.101000000     2.222000000
O     2.068000000     2.818000000     3.722000000
C     3.051000000     2.339000000     2.884000000
C     3.506000000     1.053000000     2.959000000
H     3.188000000     0.448000000     3.805000000
C     4.314000000     0.501000000     1.995000000
O     4.578000000    -0.859000000     2.042000000
C     4.737000000     1.312000000     0.884000000
C     5.550000000     0.776000000    -0.374000000
H     5.845000000     1.723000000    -0.830000000
C     4.607000000     0.030000000    -1.344000000
C     4.290000000     0.676000000    -2.511000000
H     4.568000000     1.720000000    -2.624000000
H     6.428000000     0.164000000    -0.156000000
C     4.310000000     2.640000000     0.889000000
H     4.606000000     3.274000000     0.058000000
C     3.436000000     3.176000000     1.848000000
C     2.851000000     4.555000000     1.554000000
H     3.518000000     5.056000000     0.849000000
H     2.804000000     5.120000000     2.487000000
C     1.574000000     4.612000000     0.779000000
C     1.577000000     4.833000000    -0.534000000
H     2.503000000     4.800000000    -1.103000000
C     0.334000000     4.316000000     1.419000000
C    -0.874000000     4.332000000     0.720000000
H    -1.766000000     3.983000000     1.236000000
C    -0.868000000     4.556000000    -0.635000000
O    -2.065000000     4.427000000    -1.318000000
C    -2.308000000     3.111000000    -1.854000000
C    -3.721000000     2.645000000    -1.581000000
C    -4.276000000     1.566000000    -2.314000000
H    -3.789000000     1.046000000    -3.135000000
C    -4.430000000     3.024000000    -0.450000000
H    -4.027000000     3.820000000     0.172000000
O    -2.066000000     3.178000000    -3.296000000
H    -1.669000000     2.411000000    -1.296000000
C     0.369000000     4.765000000    -1.318000000
C     0.379000000     4.808000000    -2.888000000
H     1.244000000     5.396000000    -3.204000000
H    -0.473000000     5.379000000    -3.261000000
C     0.343000000     3.380000000    -3.558000000
C     1.568000000     2.746000000    -3.872000000
H     2.537000000     3.222000000    -3.743000000
C    -0.890000000     2.673000000    -3.735000000
C    -0.879000000     1.470000000    -4.350000000
H    -1.836000000     0.978000000    -4.510000000
C     0.330000000     0.832000000    -4.464000000
O     0.314000000    -0.466000000    -4.935000000
C     0.628000000    -1.492000000    -3.958000000
C    -0.203000000    -2.733000000    -4.079000000
C    -1.525000000    -2.590000000    -4.446000000
H    -2.010000000    -1.630000000    -4.604000000
C     0.399000000    -3.980000000    -4.085000000
H     1.464000000    -4.103000000    -3.903000000
O     2.037000000    -1.854000000    -3.939000000
H     0.531000000    -0.930000000    -3.018000000
C     1.562000000     1.444000000    -4.380000000
C     2.917000000     0.719000000    -4.709000000
H     3.734000000     1.380000000    -5.003000000
H     2.894000000    -0.035000000    -5.498000000
C     3.430000000    -0.017000000    -3.418000000
C     2.932000000    -1.269000000    -3.120000000
C     3.290000000    -1.919000000    -1.945000000
H     2.898000000    -2.930000000    -1.862000000
C     4.208000000    -1.322000000    -1.121000000
O     4.512000000    -2.034000000     0.031000000
C     3.772000000    -1.631000000     1.204000000
H     2.963000000    -0.982000000     0.840000000
C     3.031000000    -2.779000000     1.872000000
C     2.977000000    -2.906000000     3.271000000
H     3.457000000    -2.164000000     3.904000000
C     2.360000000    -3.730000000     1.110000000
H     2.439000000    -3.611000000     0.032000000
C     1.599000000    -4.691000000     1.724000000
O     0.748000000    -5.471000000     0.976000000
C     1.597000000    -4.879000000     3.115000000
H     1.031000000    -5.666000000     3.607000000
C     2.310000000    -3.925000000     3.883000000
O     2.464000000    -4.090000000     5.251000000
C     2.288000000    -2.992000000     6.108000000
C     1.124000000    -2.195000000     6.064000000
H     0.307000000    -2.370000000     5.369000000
C     3.204000000    -2.778000000     7.114000000
H     4.015000000    -3.502000000     7.119000000
C     3.128000000    -1.687000000     7.977000000
H     3.930000000    -1.508000000     8.688000000
C     2.001000000    -0.869000000     7.953000000
H     1.883000000    -0.089000000     8.701000000
C     1.047000000    -1.113000000     6.971000000
O    -0.095000000    -0.288000000     7.010000000
C    -0.558000000     0.563000000     5.995000000
C    -1.884000000     0.922000000     5.926000000
H    -2.639000000     0.406000000     6.514000000
C    -2.414000000     1.602000000     4.808000000
O    -3.748000000     1.864000000     4.796000000
C    -4.333000000     2.762000000     4.007000000
C    -5.058000000     2.343000000     2.887000000
H    -5.170000000     1.302000000     2.598000000
C    -4.231000000     4.090000000     4.307000000
H    -3.670000000     4.354000000     5.200000000
C    -4.856000000     5.038000000     3.476000000
H    -4.623000000     6.082000000     3.668000000
C    -5.630000000     4.642000000     2.351000000
H    -5.997000000     5.405000000     1.669000000
C    -5.781000000     3.309000000     2.109000000
O    -6.409000000     2.939000000     0.970000000
C    -5.710000000     2.538000000    -0.113000000
C    -6.267000000     1.609000000    -1.028000000
H    -7.288000000     1.275000000    -0.866000000
C    -5.542000000     1.113000000    -2.041000000
O    -6.159000000     0.070000000    -2.709000000
C    -5.631000000    -0.659000000    -3.766000000
C    -4.862000000    -1.835000000    -3.662000000
H    -4.649000000    -2.330000000    -2.718000000
C    -5.856000000    -0.074000000    -5.000000000
H    -6.466000000     0.816000000    -5.130000000
C    -5.411000000    -0.722000000    -6.169000000
H    -5.689000000    -0.440000000    -7.182000000
C    -4.617000000    -1.847000000    -6.078000000
H    -4.459000000    -2.440000000    -6.976000000
C    -4.340000000    -2.379000000    -4.848000000
O    -3.702000000    -3.589000000    -4.742000000
C    -2.387000000    -3.711000000    -4.450000000
C    -1.823000000    -4.979000000    -4.167000000
H    -2.553000000    -5.782000000    -4.111000000
C    -0.406000000    -5.125000000    -4.090000000
O     0.072000000    -6.302000000    -3.702000000
C     0.828000000    -6.585000000    -2.607000000
C     1.986000000    -7.263000000    -2.640000000
H     2.423000000    -7.552000000    -3.593000000
C     2.753000000    -7.370000000    -1.489000000
H     3.761000000    -7.778000000    -1.512000000
C     2.301000000    -6.825000000    -0.288000000
H     2.917000000    -6.824000000     0.607000000
C     1.141000000    -6.054000000    -0.270000000
C     0.361000000    -5.949000000    -1.445000000
H    -0.612000000    -5.465000000    -1.451000000
O    -4.131000000    -7.095000000     2.027000000
H    -3.395000000    -6.483000000     2.027000000
H    -4.903000000    -6.541000000     1.916000000
O    -2.041000000    -5.456000000     1.764000000
H    -2.581000000    -5.302000000     0.988000000
H    -1.200000000    -5.751000000     1.415000000
O    -0.669000000    -8.462000000     2.998000000
H    -1.351000000    -8.514000000     3.667000000
H    -1.131000000    -8.610000000     2.173000000
O    -6.664000000    -3.621000000    -1.570000000
H    -6.316000000    -3.469000000    -0.691000000
H    -7.109000000    -4.466000000    -1.509000000
O    -6.625000000    -1.178000000     1.319000000
H    -6.659000000    -0.431000000     0.721000000
H    -5.822000000    -1.640000000     1.080000000
O    -7.324000000    -1.180000000     3.833000000
H    -6.648000000    -1.672000000     4.299000000
H    -7.040000000    -1.189000000     2.919000000
O    -3.769000000    -6.329000000    -1.970000000
H    -2.968000000    -6.804000000    -1.746000000
H    -3.707000000    -5.510000000    -1.480000000
O    -8.040000000    -8.039000000     2.629000000
H    -8.584000000    -8.642000000     2.123000000
H    -7.990000000    -7.250000000     2.089000000
O    -2.311000000    -5.870000000     4.743000000
H    -2.397000000    -5.486000000     3.871000000
H    -1.612000000    -5.366000000     5.159000000
O    -5.429000000    -8.677000000    -0.708000000
H    -5.184000000    -8.638000000     0.217000000
H    -4.965000000    -7.943000000    -1.110000000
O    -4.431000000    -2.046000000     6.654000000
H    -4.768000000    -2.928000000     6.500000000
H    -4.238000000    -1.708000000     5.779000000
O    -0.976000000    -2.698000000     2.746000000
H    -1.564000000    -3.360000000     2.383000000
H    -0.639000000    -2.231000000     1.981000000
O    -3.197000000    -1.197000000     3.922000000
H    -2.419000000    -1.755000000     3.933000000
H    -3.026000000    -0.561000000     3.227000000
O    -5.833000000    -6.310000000    -4.274000000
H    -5.285000000    -6.536000000    -3.522000000
H    -5.903000000    -5.356000000    -4.241000000
O    -1.846000000    -8.194000000    -1.023000000
H    -1.383000000    -8.518000000    -1.795000000
H    -1.487000000    -8.705000000    -0.297000000
O    -5.108000000    -4.494000000     5.660000000
H    -4.499000000    -5.223000000     5.541000000
H    -5.908000000    -4.902000000     5.991000000
O    -5.869000000    -4.899000000     1.869000000
H    -6.581000000    -4.389000000     2.257000000
H    -5.254000000    -4.242000000     1.543000000
O    -9.113000000    -2.716000000     1.965000000
H    -8.799000000    -2.296000000     2.766000000
H    -8.484000000    -2.453000000     1.293000000
O    -8.669000000    -1.635000000    -1.005000000
H    -8.653000000    -1.089000000    -1.791000000
H    -8.139000000    -2.399000000    -1.234000000
