201
-1262.52599
C    -1.989000000     2.965000000     3.049000000
H    -2.162000000     3.245000000     2.013000000
C    -0.700000000     2.988000000     3.556000000
C    -0.488000000     2.280000000     4.719000000
H     0.514000000     2.044000000     5.068000000
C     0.453000000     3.423000000     2.683000000
O     0.118000000     4.561000000     1.844000000
H     0.492000000     2.673000000     1.879000000
O     1.687000000     3.465000000     3.411000000
C     2.669000000     2.709000000     2.763000000
C     2.843000000     1.417000000     3.176000000
H     2.393000000     1.079000000     4.106000000
C     3.709000000     0.605000000     2.429000000
O     3.820000000    -0.697000000     2.753000000
C     4.399000000     1.086000000     1.339000000
C     5.385000000     0.162000000     0.601000000
H     6.263000000     0.704000000     0.246000000
C     4.848000000    -0.700000000    -0.564000000
C     4.809000000    -0.246000000    -1.871000000
H     5.238000000     0.737000000    -2.045000000
H     5.778000000    -0.530000000     1.349000000
C     4.184000000     2.388000000     0.928000000
H     4.657000000     2.698000000     0.000000000
C     3.330000000     3.259000000     1.644000000
C     3.031000000     4.599000000     1.078000000
H     3.931000000     4.925000000     0.552000000
H     2.687000000     5.310000000     1.832000000
C     1.906000000     4.528000000     0.124000000
C     2.184000000     4.532000000    -1.258000000
H     3.202000000     4.527000000    -1.638000000
C     0.578000000     4.515000000     0.540000000
C    -0.433000000     4.500000000    -0.454000000
H    -1.480000000     4.552000000    -0.165000000
C    -0.152000000     4.447000000    -1.827000000
O    -1.198000000     4.265000000    -2.613000000
C    -1.592000000     2.940000000    -2.858000000
C    -3.114000000     2.676000000    -2.780000000
C    -3.630000000     1.634000000    -3.513000000
H    -3.013000000     1.021000000    -4.165000000
C    -3.884000000     3.497000000    -1.979000000
H    -3.565000000     4.404000000    -1.472000000
O    -1.041000000     2.636000000    -4.119000000
H    -1.055000000     2.249000000    -2.193000000
C     1.170000000     4.354000000    -2.249000000
C     1.361000000     4.167000000    -3.708000000
H     2.373000000     4.505000000    -3.942000000
H     0.696000000     4.816000000    -4.283000000
C     1.333000000     2.695000000    -4.101000000
C     2.515000000     1.887000000    -4.065000000
H     3.483000000     2.281000000    -3.767000000
C     0.145000000     2.025000000    -4.239000000
C     0.103000000     0.648000000    -4.428000000
H    -0.835000000     0.099000000    -4.470000000
C     1.257000000    -0.143000000    -4.442000000
O     1.130000000    -1.527000000    -4.565000000
C     1.256000000    -2.414000000    -3.370000000
C     0.236000000    -3.597000000    -3.477000000
C    -1.058000000    -3.360000000    -3.889000000
H    -1.327000000    -2.415000000    -4.353000000
C     0.553000000    -4.807000000    -2.833000000
H     1.540000000    -4.966000000    -2.407000000
O     2.652000000    -2.778000000    -3.344000000
H     1.087000000    -1.808000000    -2.467000000
C     2.482000000     0.512000000    -4.284000000
C     3.765000000    -0.377000000    -4.215000000
H     4.654000000     0.185000000    -4.509000000
H     3.738000000    -1.171000000    -4.965000000
C     4.019000000    -0.931000000    -2.766000000
C     3.496000000    -2.219000000    -2.458000000
C     3.716000000    -2.780000000    -1.248000000
H     3.318000000    -3.775000000    -1.066000000
C     4.325000000    -1.973000000    -0.254000000
O     4.119000000    -2.398000000     1.068000000
C     3.129000000    -1.615000000     1.857000000
H     2.427000000    -1.109000000     1.178000000
C     2.290000000    -2.605000000     2.751000000
C     2.095000000    -2.316000000     4.116000000
H     2.445000000    -1.414000000     4.612000000
C     1.790000000    -3.773000000     2.197000000
H     1.881000000    -3.922000000     1.125000000
C     1.011000000    -4.639000000     2.995000000
O     0.459000000    -5.798000000     2.442000000
C     0.847000000    -4.391000000     4.314000000
H     0.093000000    -4.959000000     4.853000000
C     1.401000000    -3.257000000     4.917000000
O     1.098000000    -3.042000000     6.242000000
C     0.879000000    -1.791000000     6.771000000
C    -0.216000000    -0.907000000     6.457000000
H    -0.795000000    -1.166000000     5.574000000
C     1.606000000    -1.416000000     7.911000000
H     2.469000000    -1.973000000     8.268000000
C     1.204000000    -0.320000000     8.689000000
H     1.803000000    -0.147000000     9.579000000
C     0.210000000     0.542000000     8.292000000
H    -0.052000000     1.384000000     8.927000000
C    -0.448000000     0.297000000     7.101000000
O    -1.461000000     1.140000000     6.680000000
C    -1.555000000     1.704000000     5.448000000
C    -2.846000000     1.796000000     4.932000000
H    -3.641000000     1.344000000     5.520000000
C    -3.074000000     2.399000000     3.740000000
O    -4.380000000     2.545000000     3.349000000
C    -4.706000000     3.629000000     2.500000000
C    -5.187000000     3.323000000     1.174000000
H    -5.329000000     2.267000000     0.956000000
C    -4.802000000     4.979000000     2.834000000
H    -4.642000000     5.259000000     3.872000000
C    -5.291000000     5.951000000     2.013000000
H    -5.383000000     6.977000000     2.361000000
C    -5.597000000     5.615000000     0.668000000
H    -6.050000000     6.392000000     0.057000000
C    -5.589000000     4.284000000     0.257000000
O    -6.084000000     3.876000000    -0.986000000
C    -5.287000000     3.143000000    -1.821000000
C    -5.773000000     2.063000000    -2.470000000
H    -6.805000000     1.738000000    -2.369000000
C    -4.968000000     1.300000000    -3.277000000
O    -5.621000000     0.232000000    -3.872000000
C    -4.916000000    -0.684000000    -4.595000000
C    -4.467000000    -1.785000000    -3.947000000
H    -4.689000000    -1.991000000    -2.903000000
C    -4.707000000    -0.496000000    -5.953000000
H    -4.983000000     0.452000000    -6.409000000
C    -4.010000000    -1.491000000    -6.645000000
H    -3.757000000    -1.397000000    -7.698000000
C    -3.498000000    -2.593000000    -6.023000000
H    -3.012000000    -3.374000000    -6.602000000
C    -3.781000000    -2.802000000    -4.612000000
O    -3.417000000    -4.019000000    -4.035000000
C    -2.087000000    -4.311000000    -3.730000000
C    -1.749000000    -5.516000000    -3.103000000
H    -2.523000000    -6.272000000    -2.994000000
C    -0.428000000    -5.807000000    -2.701000000
O    -0.113000000    -6.999000000    -2.141000000
C     0.724000000    -7.032000000    -1.000000000
C     1.780000000    -7.891000000    -0.928000000
H     2.162000000    -8.426000000    -1.794000000
C     2.407000000    -8.018000000     0.270000000
H     3.278000000    -8.650000000     0.422000000
C     2.027000000    -7.344000000     1.407000000
H     2.684000000    -7.452000000     2.267000000
C     0.996000000    -6.389000000     1.328000000
C     0.243000000    -6.352000000     0.166000000
H    -0.678000000    -5.775000000     0.149000000
O    -2.963000000    -5.641000000     1.939000000
H    -3.234000000    -4.883000000     1.422000000
H    -2.838000000    -5.296000000     2.823000000
O    -4.510000000    -7.922000000     1.984000000
H    -4.971000000    -8.071000000     1.159000000
H    -4.199000000    -7.019000000     1.926000000
O    -3.045000000    -4.143000000     4.294000000
H    -2.953000000    -4.295000000     5.234000000
H    -2.959000000    -3.194000000     4.195000000
O    -5.064000000    -8.236000000    -0.655000000
H    -4.261000000    -8.757000000    -0.625000000
H    -4.764000000    -7.343000000    -0.820000000
O    -6.295000000    -3.583000000    -1.244000000
H    -5.821000000    -3.053000000    -0.603000000
H    -7.140000000    -3.143000000    -1.340000000
O    -7.591000000    -6.335000000     0.336000000
H    -6.940000000    -5.719000000     0.671000000
H    -7.847000000    -5.975000000    -0.513000000
O    -6.036000000     0.232000000     0.034000000
H    -6.723000000    -0.216000000    -0.460000000
H    -5.339000000    -0.418000000     0.118000000
O    -5.990000000    -0.749000000     5.728000000
H    -5.892000000    -0.887000000     4.786000000
H    -6.935000000    -0.784000000     5.878000000
O    -7.101000000     0.944000000     2.450000000
H    -6.839000000     1.056000000     1.537000000
H    -6.689000000     0.122000000     2.719000000
O    -6.485000000    -5.268000000    -3.576000000
H    -5.932000000    -4.675000000    -3.068000000
H    -7.268000000    -4.755000000    -3.774000000
O    -8.201000000    -3.167000000     2.804000000
H    -8.581000000    -3.155000000     1.926000000
H    -7.467000000    -3.778000000     2.739000000
O    -4.997000000    -6.715000000     4.688000000
H    -4.408000000    -6.020000000     4.394000000
H    -4.979000000    -7.359000000     3.981000000
O    -4.445000000    -5.600000000    -1.132000000
H    -5.255000000    -5.120000000    -1.301000000
H    -3.871000000    -4.960000000    -0.710000000
O    -3.028000000    -1.485000000     4.152000000
H    -2.232000000    -1.154000000     3.738000000
H    -3.730000000    -1.245000000     3.547000000
O    -0.769000000    -0.828000000     2.887000000
H    -0.069000000    -1.481000000     2.904000000
H    -1.054000000    -0.806000000     1.973000000
O    -6.223000000    -3.794000000     5.346000000
H    -5.979000000    -4.100000000     6.219000000
H    -5.841000000    -2.918000000     5.284000000
O    -5.905000000    -1.539000000     2.947000000
H    -5.533000000    -1.678000000     2.076000000
H    -6.771000000    -1.945000000     2.906000000
O    -5.769000000    -4.326000000     1.851000000
H    -5.126000000    -3.996000000     1.224000000
H    -5.430000000    -4.060000000     2.705000000
O    -7.822000000    -1.177000000    -1.687000000
H    -8.685000000    -1.322000000    -1.299000000
H    -8.006000000    -0.760000000    -2.529000000
