201
-1213.48727
C    -2.145000000     3.611000000     3.077000000
H    -2.188000000     3.975000000     2.054000000
C    -0.949000000     3.042000000     3.501000000
C    -0.876000000     2.295000000     4.715000000
H     0.069000000     1.782000000     4.873000000
C     0.378000000     3.165000000     2.702000000
O     0.407000000     4.449000000     2.074000000
H     0.392000000     2.358000000     1.955000000
O     1.551000000     3.101000000     3.495000000
C     2.551000000     2.338000000     3.006000000
C     2.692000000     1.067000000     3.530000000
H     1.904000000     0.726000000     4.196000000
C     3.586000000     0.164000000     2.940000000
O     3.625000000    -1.088000000     3.378000000
C     4.451000000     0.535000000     1.911000000
C     5.499000000    -0.426000000     1.291000000
H     6.350000000     0.132000000     0.895000000
C     4.779000000    -1.247000000     0.202000000
C     4.893000000    -0.709000000    -1.088000000
H     5.479000000     0.206000000    -1.116000000
H     5.912000000    -1.048000000     2.087000000
C     4.330000000     1.819000000     1.377000000
H     4.981000000     2.182000000     0.585000000
C     3.431000000     2.721000000     1.935000000
C     3.265000000     4.143000000     1.446000000
H     4.269000000     4.397000000     1.101000000
H     3.176000000     4.846000000     2.277000000
C     2.193000000     4.312000000     0.466000000
C     2.571000000     4.264000000    -0.914000000
H     3.600000000     4.048000000    -1.191000000
C     0.815000000     4.478000000     0.781000000
C    -0.122000000     4.493000000    -0.217000000
H    -1.177000000     4.601000000     0.019000000
C     0.291000000     4.351000000    -1.548000000
O    -0.670000000     4.218000000    -2.558000000
C    -0.879000000     2.837000000    -3.037000000
C    -2.361000000     2.489000000    -2.953000000
C    -2.707000000     1.241000000    -3.552000000
H    -2.061000000     0.596000000    -4.142000000
C    -3.242000000     3.243000000    -2.144000000
H    -3.007000000     4.111000000    -1.533000000
O    -0.410000000     2.619000000    -4.320000000
H    -0.389000000     2.137000000    -2.345000000
C     1.623000000     4.226000000    -1.907000000
C     1.976000000     3.937000000    -3.344000000
H     2.946000000     4.427000000    -3.455000000
H     1.358000000     4.559000000    -3.995000000
C     1.913000000     2.494000000    -3.806000000
C     2.952000000     1.668000000    -3.617000000
H     3.867000000     2.080000000    -3.198000000
C     0.753000000     1.952000000    -4.362000000
C     0.734000000     0.569000000    -4.681000000
H    -0.256000000     0.185000000    -4.914000000
C     1.819000000    -0.259000000    -4.486000000
O     1.689000000    -1.610000000    -4.651000000
C     1.445000000    -2.344000000    -3.420000000
C     0.375000000    -3.436000000    -3.722000000
C    -0.544000000    -3.326000000    -4.755000000
H    -0.647000000    -2.413000000    -5.336000000
C     0.285000000    -4.555000000    -2.921000000
H     1.023000000    -4.608000000    -2.124000000
O     2.708000000    -3.015000000    -2.877000000
H     0.947000000    -1.715000000    -2.668000000
C     2.900000000     0.299000000    -3.894000000
C     4.100000000    -0.599000000    -3.556000000
H     5.043000000    -0.054000000    -3.630000000
H     4.228000000    -1.356000000    -4.333000000
C     4.104000000    -1.274000000    -2.159000000
C     3.366000000    -2.395000000    -1.871000000
C     3.292000000    -3.000000000    -0.586000000
H     2.706000000    -3.902000000    -0.428000000
C     3.902000000    -2.333000000     0.474000000
O     3.551000000    -2.748000000     1.742000000
C     2.774000000    -1.941000000     2.603000000
H     2.257000000    -1.279000000     1.893000000
C     1.751000000    -2.784000000     3.323000000
C     1.378000000    -2.548000000     4.690000000
H     1.855000000    -1.873000000     5.395000000
C     1.141000000    -3.782000000     2.627000000
H     1.412000000    -3.959000000     1.589000000
C     0.093000000    -4.565000000     3.193000000
O    -0.562000000    -5.419000000     2.385000000
C    -0.323000000    -4.232000000     4.486000000
H    -1.099000000    -4.874000000     4.895000000
C     0.234000000    -3.207000000     5.199000000
O    -0.247000000    -2.966000000     6.434000000
C    -0.254000000    -1.690000000     6.928000000
C    -1.200000000    -0.750000000     6.630000000
H    -1.941000000    -1.016000000     5.880000000
C     0.835000000    -1.332000000     7.715000000
H     1.681000000    -2.012000000     7.783000000
C     1.115000000    -0.043000000     8.079000000
H     1.976000000     0.138000000     8.717000000
C     0.093000000     0.909000000     7.809000000
H     0.104000000     1.937000000     8.161000000
C    -1.108000000     0.542000000     7.118000000
O    -2.076000000     1.404000000     6.706000000
C    -1.999000000     2.214000000     5.570000000
C    -3.235000000     2.838000000     5.172000000
H    -4.147000000     2.839000000     5.763000000
C    -3.280000000     3.514000000     3.921000000
O    -4.456000000     4.011000000     3.462000000
C    -4.684000000     4.552000000     2.206000000
C    -4.836000000     3.748000000     1.110000000
H    -4.590000000     2.689000000     1.105000000
C    -4.970000000     5.943000000     2.021000000
H    -4.810000000     6.575000000     2.890000000
C    -5.265000000     6.480000000     0.786000000
H    -5.496000000     7.538000000     0.692000000
C    -5.476000000     5.674000000    -0.288000000
H    -5.744000000     6.167000000    -1.219000000
C    -5.240000000     4.290000000    -0.159000000
O    -5.386000000     3.523000000    -1.319000000
C    -4.524000000     2.744000000    -1.993000000
C    -4.927000000     1.539000000    -2.619000000
H    -6.004000000     1.391000000    -2.630000000
C    -4.034000000     0.715000000    -3.298000000
O    -4.467000000    -0.521000000    -3.778000000
C    -4.154000000    -1.133000000    -4.944000000
C    -3.440000000    -2.297000000    -4.846000000
H    -3.204000000    -2.692000000    -3.862000000
C    -4.458000000    -0.547000000    -6.156000000
H    -4.965000000     0.409000000    -6.258000000
C    -4.102000000    -1.204000000    -7.365000000
H    -4.318000000    -0.757000000    -8.333000000
C    -3.472000000    -2.387000000    -7.299000000
H    -3.220000000    -2.867000000    -8.242000000
C    -3.141000000    -2.944000000    -6.074000000
O    -2.395000000    -4.128000000    -6.001000000
C    -1.524000000    -4.378000000    -4.918000000
C    -1.622000000    -5.454000000    -4.077000000
H    -2.385000000    -6.225000000    -4.150000000
C    -0.663000000    -5.524000000    -3.044000000
O    -0.734000000    -6.552000000    -2.203000000
C    -0.101000000    -6.621000000    -0.955000000
C     1.087000000    -7.333000000    -0.763000000
H     1.614000000    -7.827000000    -1.575000000
C     1.719000000    -7.342000000     0.436000000
H     2.556000000    -7.972000000     0.728000000
C     1.146000000    -6.715000000     1.493000000
H     1.673000000    -6.729000000     2.443000000
C    -0.124000000    -6.180000000     1.363000000
C    -0.764000000    -6.165000000     0.161000000
H    -1.713000000    -5.643000000     0.077000000
O    -3.853000000    -6.045000000     1.431000000
H    -4.186000000    -5.190000000     1.158000000
H    -3.020000000    -5.851000000     1.860000000
O    -3.557000000    -4.686000000     4.946000000
H    -3.641000000    -4.519000000     5.885000000
H    -4.280000000    -4.201000000     4.550000000
O    -9.063000000    -4.929000000     0.068000000
H    -8.205000000    -4.507000000     0.029000000
H    -9.009000000    -5.642000000    -0.568000000
O    -4.884000000     0.512000000     6.357000000
H    -4.198000000     0.667000000     5.708000000
H    -4.414000000     0.420000000     7.186000000
O    -6.752000000    -3.635000000    -0.295000000
H    -5.893000000    -3.490000000     0.101000000
H    -6.976000000    -2.795000000    -0.695000000
O    -6.263000000    -7.326000000    -1.947000000
H    -6.527000000    -7.105000000    -1.054000000
H    -6.821000000    -6.782000000    -2.503000000
O    -6.777000000    -0.197000000     1.405000000
H    -6.936000000    -0.037000000     0.475000000
H    -5.986000000    -0.736000000     1.423000000
O    -6.848000000     1.076000000     4.139000000
H    -6.654000000     1.010000000     3.204000000
H    -6.161000000     0.562000000     4.563000000
O    -6.907000000    -1.790000000    -2.782000000
H    -6.037000000    -1.403000000    -2.874000000
H    -7.423000000    -1.116000000    -2.339000000
O    -4.536000000    -4.673000000    -2.259000000
H    -3.974000000    -4.284000000    -1.589000000
H    -5.425000000    -4.440000000    -1.990000000
O    -5.442000000    -5.261000000    -4.841000000
H    -5.133000000    -5.013000000    -3.969000000
H    -6.259000000    -4.776000000    -4.952000000
O    -6.053000000    -3.071000000     5.804000000
H    -5.755000000    -2.327000000     6.328000000
H    -6.522000000    -3.628000000     6.425000000
O    -3.480000000    -0.418000000     3.540000000
H    -4.140000000    -1.012000000     3.183000000
H    -2.718000000    -0.538000000     2.973000000
O    -7.114000000    -5.730000000     3.865000000
H    -6.316000000    -5.220000000     3.728000000
H    -7.553000000    -5.296000000     4.597000000
O    -5.898000000    -3.510000000     3.031000000
H    -5.683000000    -2.727000000     2.525000000
H    -6.389000000    -3.181000000     3.784000000
O    -4.067000000    -8.817000000     2.283000000
H    -3.647000000    -8.868000000     3.141000000
H    -4.072000000    -7.883000000     2.073000000
O    -9.156000000    -0.272000000     2.472000000
H    -8.255000000    -0.193000000     2.160000000
H    -9.410000000    -1.167000000     2.248000000
O    -8.511000000    -0.796000000    -0.694000000
H    -9.048000000    -1.586000000    -0.634000000
H    -9.138000000    -0.075000000    -0.630000000
O    -7.228000000    -6.963000000     0.606000000
H    -7.938000000    -6.672000000     1.178000000
H    -6.437000000    -6.593000000     0.998000000
