201
-1243.14047
C    -3.116000000     4.290000000     2.323000000
H    -3.025000000     4.998000000     1.503000000
C    -1.988000000     3.699000000     2.870000000
C    -2.161000000     2.742000000     3.885000000
H    -1.261000000     2.291000000     4.294000000
C    -0.577000000     3.846000000     2.233000000
O    -0.464000000     5.077000000     1.414000000
H    -0.497000000     2.918000000     1.648000000
O     0.561000000     3.807000000     3.194000000
C     1.671000000     3.119000000     2.843000000
C     1.887000000     1.862000000     3.422000000
H     1.232000000     1.425000000     4.171000000
C     3.038000000     1.178000000     3.098000000
O     3.169000000    -0.050000000     3.701000000
C     3.922000000     1.647000000     2.206000000
C     5.230000000     0.833000000     1.846000000
H     5.918000000     1.595000000     1.475000000
C     5.001000000    -0.204000000     0.818000000
C     5.132000000     0.176000000    -0.523000000
H     5.434000000     1.199000000    -0.732000000
H     5.675000000     0.359000000     2.723000000
C     3.746000000     2.899000000     1.635000000
H     4.625000000     3.136000000     1.043000000
C     2.637000000     3.688000000     1.945000000
C     2.384000000     4.970000000     1.181000000
H     3.356000000     5.413000000     0.956000000
H     2.007000000     5.709000000     1.891000000
C     1.507000000     4.823000000     0.005000000
C     2.070000000     4.503000000    -1.233000000
H     3.152000000     4.522000000    -1.339000000
C     0.130000000     4.837000000     0.177000000
C    -0.692000000     4.498000000    -0.840000000
H    -1.747000000     4.657000000    -0.628000000
C    -0.202000000     4.203000000    -2.121000000
O    -1.168000000     3.823000000    -3.044000000
C    -1.195000000     2.357000000    -3.221000000
C    -2.644000000     1.721000000    -3.175000000
C    -2.801000000     0.417000000    -3.586000000
H    -1.917000000    -0.155000000    -3.853000000
C    -3.717000000     2.469000000    -2.756000000
H    -3.537000000     3.467000000    -2.365000000
O    -0.328000000     1.903000000    -4.255000000
H    -0.720000000     1.957000000    -2.313000000
C     1.228000000     4.135000000    -2.293000000
C     1.871000000     3.758000000    -3.659000000
H     2.799000000     4.320000000    -3.780000000
H     1.173000000     4.186000000    -4.382000000
C     2.044000000     2.247000000    -3.804000000
C     3.298000000     1.698000000    -3.556000000
H     3.992000000     2.344000000    -3.025000000
C     0.961000000     1.432000000    -4.147000000
C     1.137000000     0.078000000    -4.365000000
H     0.378000000    -0.562000000    -4.808000000
C     2.317000000    -0.456000000    -3.967000000
O     2.402000000    -1.825000000    -4.007000000
C     2.282000000    -2.510000000    -2.724000000
C     1.564000000    -3.849000000    -2.802000000
C     0.480000000    -3.918000000    -3.627000000
H     0.333000000    -3.117000000    -4.347000000
C     1.811000000    -4.876000000    -1.843000000
H     2.650000000    -4.876000000    -1.152000000
O     3.624000000    -2.758000000    -2.175000000
H     1.697000000    -1.809000000    -2.110000000
C     3.474000000     0.285000000    -3.560000000
C     4.753000000    -0.256000000    -3.007000000
H     5.478000000     0.559000000    -3.058000000
H     5.083000000    -1.087000000    -3.635000000
C     4.726000000    -0.709000000    -1.520000000
C     4.170000000    -1.964000000    -1.219000000
C     4.116000000    -2.352000000     0.077000000
H     3.703000000    -3.329000000     0.315000000
C     4.488000000    -1.480000000     1.096000000
O     4.136000000    -1.834000000     2.381000000
C     2.884000000    -1.221000000     2.928000000
H     2.253000000    -0.894000000     2.088000000
C     2.091000000    -2.286000000     3.677000000
C     0.992000000    -1.840000000     4.357000000
H     0.734000000    -0.785000000     4.364000000
C     2.265000000    -3.645000000     3.417000000
H     3.069000000    -3.974000000     2.764000000
C     1.301000000    -4.551000000     3.917000000
O     1.236000000    -5.820000000     3.534000000
C     0.214000000    -4.148000000     4.682000000
H    -0.531000000    -4.883000000     4.976000000
C     0.071000000    -2.771000000     4.939000000
O    -1.119000000    -2.378000000     5.499000000
C    -1.358000000    -1.122000000     6.044000000
C    -2.359000000    -0.432000000     5.409000000
H    -2.899000000    -0.845000000     4.560000000
C    -0.654000000    -0.579000000     7.088000000
H     0.180000000    -1.118000000     7.530000000
C    -0.853000000     0.795000000     7.350000000
H    -0.261000000     1.276000000     8.125000000
C    -1.953000000     1.461000000     6.829000000
H    -2.230000000     2.454000000     7.175000000
C    -2.729000000     0.818000000     5.874000000
O    -3.745000000     1.513000000     5.317000000
C    -3.456000000     2.354000000     4.287000000
C    -4.614000000     2.965000000     3.723000000
H    -5.580000000     2.718000000     4.157000000
C    -4.437000000     3.951000000     2.712000000
O    -5.535000000     4.511000000     2.178000000
C    -5.975000000     4.518000000     0.861000000
C    -5.850000000     3.370000000     0.001000000
H    -5.644000000     2.387000000     0.418000000
C    -6.579000000     5.680000000     0.354000000
H    -6.680000000     6.540000000     1.010000000
C    -7.018000000     5.749000000    -0.954000000
H    -7.438000000     6.628000000    -1.437000000
C    -6.784000000     4.622000000    -1.817000000
H    -7.242000000     4.577000000    -2.802000000
C    -6.177000000     3.552000000    -1.364000000
O    -6.162000000     2.511000000    -2.261000000
C    -4.989000000     1.875000000    -2.731000000
C    -5.158000000     0.587000000    -3.219000000
H    -6.180000000     0.219000000    -3.269000000
C    -4.093000000    -0.170000000    -3.566000000
O    -4.311000000    -1.433000000    -4.018000000
C    -3.485000000    -2.203000000    -4.749000000
C    -2.850000000    -3.337000000    -4.250000000
H    -2.978000000    -3.550000000    -3.192000000
C    -3.196000000    -1.719000000    -6.026000000
H    -3.557000000    -0.751000000    -6.364000000
C    -2.279000000    -2.393000000    -6.747000000
H    -2.099000000    -2.006000000    -7.747000000
C    -1.669000000    -3.613000000    -6.295000000
H    -0.888000000    -4.092000000    -6.881000000
C    -2.042000000    -4.102000000    -5.061000000
O    -1.358000000    -5.203000000    -4.518000000
C    -0.258000000    -5.125000000    -3.640000000
C    -0.050000000    -6.095000000    -2.745000000
H    -0.662000000    -6.991000000    -2.807000000
C     0.987000000    -5.989000000    -1.803000000
O     1.370000000    -7.073000000    -1.039000000
C     1.872000000    -6.963000000     0.240000000
C     2.971000000    -7.813000000     0.453000000
H     3.380000000    -8.411000000    -0.357000000
C     3.605000000    -7.909000000     1.700000000
H     4.459000000    -8.544000000     1.917000000
C     3.030000000    -7.220000000     2.740000000
H     3.311000000    -7.439000000     3.767000000
C     1.897000000    -6.369000000     2.491000000
C     1.392000000    -6.189000000     1.241000000
H     0.441000000    -5.667000000     1.170000000
O    -6.658000000    -4.022000000     3.610000000
H    -6.147000000    -4.401000000     4.325000000
H    -6.092000000    -4.102000000     2.842000000
O    -6.224000000    -4.430000000    -1.361000000
H    -6.581000000    -3.542000000    -1.325000000
H    -5.304000000    -4.327000000    -1.115000000
O    -8.223000000    -5.169000000     1.532000000
H    -8.345000000    -4.221000000     1.475000000
H    -7.350000000    -5.320000000     1.170000000
O    -9.015000000    -2.384000000     1.145000000
H    -9.951000000    -2.238000000     1.007000000
H    -8.687000000    -1.547000000     1.473000000
O    -1.778000000    -8.228000000    -0.831000000
H    -0.952000000    -8.330000000    -1.303000000
H    -2.446000000    -8.208000000    -1.516000000
O    -8.895000000     1.741000000    -0.083000000
H    -8.406000000     2.462000000     0.314000000
H    -8.758000000     1.003000000     0.512000000
O    -5.591000000    -5.553000000    -5.504000000
H    -6.162000000    -6.307000000    -5.651000000
H    -5.776000000    -5.284000000    -4.604000000
O    -5.521000000    -0.517000000     4.828000000
H    -4.734000000     0.015000000     4.942000000
H    -5.659000000    -0.541000000     3.881000000
O    -4.144000000    -3.716000000     2.356000000
H    -4.046000000    -3.537000000     1.421000000
H    -3.421000000    -4.307000000     2.564000000
O    -5.934000000    -6.774000000     1.521000000
H    -6.068000000    -7.282000000     2.321000000
H    -5.082000000    -6.355000000     1.643000000
O    -9.042000000    -0.156000000    -2.639000000
H    -9.720000000    -0.782000000    -2.387000000
H    -8.502000000    -0.059000000    -1.854000000
O    -2.761000000    -7.067000000     3.343000000
H    -2.843000000    -7.770000000     2.698000000
H    -2.134000000    -6.457000000     2.954000000
O    -4.102000000    -7.947000000    -2.407000000
H    -4.925000000    -8.101000000    -1.944000000
H    -4.037000000    -8.672000000    -3.029000000
O    -2.842000000    -5.823000000     0.732000000
H    -3.555000000    -5.389000000     0.264000000
H    -2.486000000    -6.448000000     0.101000000
O    -5.459000000    -1.046000000     1.970000000
H    -4.973000000    -1.815000000     2.271000000
H    -5.189000000    -0.934000000     1.059000000
O    -7.092000000    -2.390000000    -3.627000000
H    -6.245000000    -1.955000000    -3.729000000
H    -7.413000000    -2.093000000    -2.776000000
O    -7.734000000    -6.538000000    -1.546000000
H    -7.248000000    -5.717000000    -1.622000000
H    -7.781000000    -6.872000000    -2.442000000
O    -7.332000000    -1.830000000    -0.920000000
H    -7.952000000    -1.898000000    -0.194000000
H    -6.490000000    -1.652000000    -0.500000000
O    -7.797000000     0.155000000     1.962000000
H    -8.069000000     0.487000000     2.818000000
H    -6.966000000    -0.288000000     2.129000000
