201
-1265.58439
C    -4.001000000    -3.456000000    -1.411000000
H    -4.164000000    -3.175000000    -2.449000000
C    -3.898000000    -2.482000000    -0.397000000
C    -3.370000000    -2.896000000     0.797000000
H    -3.344000000    -2.179000000     1.615000000
C    -3.959000000    -0.936000000    -0.738000000
O    -4.629000000    -0.732000000    -1.970000000
H    -3.004000000    -0.400000000    -0.839000000
O    -4.717000000    -0.285000000     0.300000000
C    -4.338000000     0.903000000     0.764000000
C    -3.787000000     0.912000000     2.033000000
H    -3.570000000    -0.012000000     2.561000000
C    -3.258000000     2.090000000     2.546000000
O    -2.594000000     1.950000000     3.705000000
C    -3.312000000     3.282000000     1.779000000
C    -2.600000000     4.541000000     2.344000000
H    -3.061000000     5.436000000     1.920000000
C    -1.067000000     4.541000000     2.052000000
C    -0.710000000     5.043000000     0.832000000
H    -1.475000000     5.322000000     0.113000000
H    -2.621000000     4.522000000     3.436000000
C    -3.837000000     3.238000000     0.481000000
H    -3.913000000     4.094000000    -0.185000000
C    -4.339000000     2.069000000    -0.043000000
C    -4.914000000     2.078000000    -1.428000000
H    -5.241000000     3.085000000    -1.697000000
H    -5.875000000     1.565000000    -1.503000000
C    -4.048000000     1.533000000    -2.512000000
C    -3.255000000     2.408000000    -3.319000000
H    -3.451000000     3.474000000    -3.240000000
C    -4.057000000     0.193000000    -2.807000000
C    -3.111000000    -0.327000000    -3.698000000
H    -3.078000000    -1.412000000    -3.763000000
C    -2.146000000     0.519000000    -4.275000000
O    -1.117000000    -0.030000000    -4.959000000
C     0.147000000    -0.117000000    -4.267000000
C     0.817000000    -1.470000000    -4.496000000
C     2.174000000    -1.625000000    -4.134000000
H     2.771000000    -0.733000000    -3.966000000
C     0.071000000    -2.600000000    -4.775000000
H    -0.997000000    -2.480000000    -4.940000000
O     1.019000000     0.956000000    -4.694000000
H     0.147000000     0.030000000    -3.177000000
C    -2.242000000     1.890000000    -4.108000000
C    -1.286000000     2.803000000    -4.784000000
H    -1.660000000     3.808000000    -4.992000000
H    -0.975000000     2.476000000    -5.779000000
C    -0.035000000     3.000000000    -3.905000000
C    -0.014000000     4.029000000    -2.893000000
H    -0.962000000     4.537000000    -2.736000000
C     1.037000000     2.092000000    -3.881000000
C     2.081000000     2.242000000    -3.034000000
H     2.864000000     1.499000000    -3.159000000
C     2.109000000     3.278000000    -2.091000000
O     3.179000000     3.382000000    -1.239000000
C     2.999000000     3.061000000     0.151000000
C     4.177000000     2.219000000     0.689000000
C     4.551000000     1.079000000    -0.111000000
H     4.066000000     0.953000000    -1.076000000
C     4.822000000     2.376000000     1.927000000
H     4.567000000     3.213000000     2.573000000
O     2.809000000     4.205000000     0.882000000
H     2.095000000     2.451000000     0.291000000
C     1.013000000     4.230000000    -2.037000000
C     0.996000000     5.370000000    -1.019000000
H     0.213000000     6.064000000    -1.332000000
H     1.982000000     5.834000000    -1.093000000
C     0.577000000     4.922000000     0.359000000
C     1.541000000     4.419000000     1.234000000
C     1.199000000     3.962000000     2.520000000
H     1.957000000     3.598000000     3.210000000
C    -0.150000000     3.960000000     2.932000000
O    -0.562000000     3.218000000     3.959000000
C    -1.152000000     1.887000000     3.701000000
H    -0.894000000     1.556000000     2.684000000
C    -0.543000000     0.794000000     4.591000000
C    -1.342000000    -0.260000000     5.061000000
H    -2.386000000    -0.401000000     4.793000000
C     0.800000000     0.901000000     5.001000000
H     1.511000000     1.603000000     4.573000000
C     1.307000000    -0.099000000     5.857000000
O     2.590000000     0.023000000     6.361000000
C     0.516000000    -1.109000000     6.319000000
H     0.967000000    -1.839000000     6.986000000
C    -0.801000000    -1.180000000     5.955000000
O    -1.570000000    -2.247000000     6.368000000
C    -2.343000000    -2.981000000     5.585000000
C    -1.929000000    -3.374000000     4.300000000
H    -0.941000000    -3.133000000     3.918000000
C    -3.689000000    -3.218000000     5.968000000
H    -3.869000000    -2.923000000     6.998000000
C    -4.587000000    -3.844000000     5.184000000
H    -5.591000000    -4.032000000     5.557000000
C    -4.225000000    -4.145000000     3.823000000
H    -4.920000000    -4.563000000     3.100000000
C    -2.879000000    -4.011000000     3.462000000
O    -2.460000000    -4.612000000     2.258000000
C    -3.030000000    -4.238000000     1.035000000
C    -3.223000000    -5.202000000     0.028000000
H    -2.954000000    -6.245000000     0.175000000
C    -3.729000000    -4.802000000    -1.225000000
O    -3.884000000    -5.636000000    -2.286000000
C    -3.230000000    -5.443000000    -3.473000000
C    -1.853000000    -5.205000000    -3.638000000
H    -1.217000000    -5.153000000    -2.758000000
C    -3.995000000    -5.859000000    -4.537000000
H    -4.985000000    -6.255000000    -4.329000000
C    -3.459000000    -5.869000000    -5.817000000
H    -4.074000000    -6.185000000    -6.655000000
C    -2.163000000    -5.458000000    -5.975000000
H    -1.700000000    -5.565000000    -6.953000000
C    -1.349000000    -5.130000000    -4.946000000
O     0.014000000    -4.932000000    -5.168000000
C     0.677000000    -3.789000000    -4.778000000
C     2.052000000    -3.981000000    -4.566000000
H     2.413000000    -5.002000000    -4.667000000
C     2.775000000    -2.861000000    -4.266000000
O     4.153000000    -2.989000000    -4.370000000
C     5.128000000    -2.276000000    -3.671000000
C     4.935000000    -2.011000000    -2.290000000
H     4.145000000    -2.517000000    -1.741000000
C     6.079000000    -1.621000000    -4.391000000
H     6.176000000    -1.910000000    -5.435000000
C     6.892000000    -0.676000000    -3.787000000
H     7.687000000    -0.259000000    -4.399000000
C     6.787000000    -0.414000000    -2.373000000
H     7.536000000     0.186000000    -1.863000000
C     5.815000000    -1.122000000    -1.680000000
O     5.711000000    -1.083000000    -0.281000000
C     5.436000000     0.099000000     0.429000000
C     5.990000000     0.243000000     1.719000000
H     6.604000000    -0.552000000     2.134000000
C     5.638000000     1.359000000     2.456000000
O     6.164000000     1.503000000     3.747000000
C     5.322000000     1.720000000     4.765000000
C     5.512000000     2.828000000     5.508000000
H     6.378000000     3.462000000     5.335000000
C     4.655000000     3.144000000     6.534000000
H     4.791000000     4.023000000     7.159000000
C     3.608000000     2.257000000     6.747000000
H     2.944000000     2.413000000     7.593000000
C     3.471000000     1.048000000     6.049000000
C     4.360000000     0.715000000     5.054000000
H     4.229000000    -0.147000000     4.406000000
O     5.429000000    -7.879000000     2.893000000
H     5.840000000    -8.289000000     2.132000000
H     4.827000000    -8.544000000     3.227000000
O     3.229000000    -2.844000000     6.203000000
H     3.670000000    -1.995000000     6.170000000
H     3.845000000    -3.450000000     5.791000000
O     7.164000000    -1.242000000     4.941000000
H     6.762000000    -0.548000000     4.420000000
H     6.527000000    -1.956000000     4.922000000
O     9.204000000    -2.474000000     1.129000000
H     9.486000000    -2.823000000     0.284000000
H     8.424000000    -2.983000000     1.350000000
O     1.756000000    -8.646000000     1.993000000
H     1.845000000    -7.704000000     2.140000000
H     0.824000000    -8.822000000     2.125000000
O     7.343000000    -4.274000000     1.942000000
H     6.943000000    -4.719000000     2.689000000
H     6.637000000    -4.201000000     1.300000000
O     5.022000000    -5.641000000    -1.926000000
H     5.899000000    -5.561000000    -1.550000000
H     4.464000000    -5.127000000    -1.343000000
O    -1.118000000    -7.159000000     3.815000000
H    -1.059000000    -7.974000000     3.317000000
H    -2.018000000    -6.861000000     3.680000000
O     1.172000000    -6.245000000     5.545000000
H     1.171000000    -5.304000000     5.369000000
H     0.453000000    -6.589000000     5.014000000
O     1.550000000    -3.786000000     4.130000000
H     2.073000000    -3.541000000     3.367000000
H     2.024000000    -3.415000000     4.875000000
O     0.594000000    -8.131000000    -1.568000000
H     0.878000000    -7.805000000    -2.423000000
H     0.652000000    -7.370000000    -0.990000000
O     0.792000000    -5.780000000     2.481000000
H     0.098000000    -6.282000000     2.909000000
H     1.029000000    -5.108000000     3.120000000
O     4.667000000    -5.260000000     3.096000000
H     4.062000000    -4.844000000     2.482000000
H     4.699000000    -6.176000000     2.818000000
O     5.419000000    -4.828000000     6.045000000
H     5.590000000    -5.289000000     5.224000000
H     6.277000000    -4.761000000     6.465000000
O     6.070000000    -5.117000000    -4.522000000
H     5.477000000    -4.731000000    -3.877000000
H     5.510000000    -5.685000000    -5.051000000
O     0.884000000    -5.653000000    -0.221000000
H     0.708000000    -5.599000000     0.719000000
H     1.588000000    -5.021000000    -0.369000000
O     4.924000000    -8.328000000    -1.910000000
H     5.866000000    -8.465000000    -2.003000000
H     4.836000000    -7.396000000    -1.710000000
O     5.070000000    -2.713000000     3.686000000
H     5.102000000    -3.669000000     3.657000000
H     4.395000000    -2.476000000     3.050000000
O     5.457000000    -3.960000000     0.326000000
H     5.632000000    -3.026000000     0.448000000
H     4.516000000    -4.049000000     0.476000000
