201
-1243.36150
C    -3.286000000     1.978000000     2.300000000
H    -3.018000000     2.385000000     1.328000000
C    -2.349000000     1.859000000     3.330000000
C    -2.675000000     1.082000000     4.475000000
H    -1.994000000     1.017000000     5.319000000
C    -0.915000000     2.370000000     3.055000000
O    -0.939000000     3.693000000     2.674000000
H    -0.541000000     1.746000000     2.230000000
O    -0.180000000     2.348000000     4.241000000
C     1.098000000     1.857000000     4.171000000
C     1.279000000     0.548000000     4.517000000
H     0.450000000    -0.031000000     4.916000000
C     2.453000000    -0.093000000     4.186000000
O     2.458000000    -1.471000000     4.201000000
C     3.516000000     0.518000000     3.479000000
C     4.773000000    -0.144000000     3.104000000
H     5.585000000     0.581000000     3.013000000
C     4.694000000    -0.694000000     1.732000000
C     5.008000000     0.071000000     0.598000000
H     5.369000000     1.092000000     0.686000000
H     5.076000000    -0.949000000     3.776000000
C     3.270000000     1.827000000     3.099000000
H     4.045000000     2.370000000     2.563000000
C     2.099000000     2.501000000     3.416000000
C     1.926000000     3.982000000     3.156000000
H     2.908000000     4.460000000     3.188000000
H     1.298000000     4.436000000     3.925000000
C     1.274000000     4.193000000     1.822000000
C     2.071000000     4.426000000     0.704000000
H     3.138000000     4.384000000     0.908000000
C    -0.081000000     4.112000000     1.618000000
C    -0.663000000     4.318000000     0.423000000
H    -1.716000000     4.199000000     0.181000000
C     0.109000000     4.603000000    -0.681000000
O    -0.491000000     4.659000000    -1.932000000
C    -0.450000000     3.472000000    -2.727000000
C    -1.714000000     3.159000000    -3.444000000
C    -1.691000000     2.506000000    -4.712000000
H    -0.755000000     2.276000000    -5.216000000
C    -2.902000000     3.413000000    -2.854000000
H    -2.872000000     3.907000000    -1.887000000
O     0.662000000     3.447000000    -3.660000000
H    -0.340000000     2.657000000    -1.996000000
C     1.474000000     4.640000000    -0.516000000
C     2.399000000     4.759000000    -1.759000000
H     3.331000000     5.231000000    -1.441000000
H     1.899000000     5.441000000    -2.450000000
C     2.685000000     3.363000000    -2.310000000
C     3.684000000     2.547000000    -1.864000000
H     4.341000000     2.924000000    -1.084000000
C     1.868000000     2.863000000    -3.328000000
C     2.169000000     1.671000000    -3.906000000
H     1.533000000     1.253000000    -4.683000000
C     3.206000000     0.893000000    -3.473000000
O     3.256000000    -0.440000000    -3.811000000
C     2.708000000    -1.337000000    -2.872000000
C     1.765000000    -2.325000000    -3.497000000
C     1.091000000    -1.986000000    -4.670000000
H     1.183000000    -1.011000000    -5.142000000
C     1.464000000    -3.528000000    -2.881000000
H     1.952000000    -3.868000000    -1.972000000
O     3.725000000    -2.081000000    -2.111000000
H     2.036000000    -0.899000000    -2.119000000
C     4.007000000     1.294000000    -2.439000000
C     5.092000000     0.479000000    -1.845000000
H     6.045000000     0.974000000    -1.647000000
H     5.485000000    -0.177000000    -2.624000000
C     4.697000000    -0.364000000    -0.679000000
C     4.027000000    -1.549000000    -0.871000000
C     3.805000000    -2.384000000     0.250000000
H     3.445000000    -3.389000000     0.048000000
C     4.090000000    -1.982000000     1.542000000
O     3.554000000    -2.765000000     2.521000000
C     2.303000000    -2.242000000     3.019000000
H     1.813000000    -1.757000000     2.162000000
C     1.208000000    -3.326000000     3.318000000
C     0.357000000    -3.217000000     4.405000000
H     0.507000000    -2.467000000     5.178000000
C     0.969000000    -4.310000000     2.356000000
H     1.588000000    -4.406000000     1.468000000
C     0.068000000    -5.363000000     2.702000000
O    -0.125000000    -6.434000000     1.877000000
C    -0.703000000    -5.338000000     3.863000000
H    -1.390000000    -6.143000000     4.113000000
C    -0.637000000    -4.167000000     4.643000000
O    -1.401000000    -4.215000000     5.778000000
C    -1.980000000    -3.058000000     6.327000000
C    -2.967000000    -2.339000000     5.676000000
H    -3.101000000    -2.616000000     4.634000000
C    -1.629000000    -2.732000000     7.677000000
H    -0.871000000    -3.260000000     8.250000000
C    -2.279000000    -1.569000000     8.159000000
H    -1.987000000    -1.330000000     9.178000000
C    -3.109000000    -0.725000000     7.467000000
H    -3.516000000     0.135000000     7.992000000
C    -3.534000000    -1.169000000     6.220000000
O    -4.320000000    -0.359000000     5.542000000
C    -3.921000000     0.455000000     4.469000000
C    -4.867000000     0.616000000     3.510000000
H    -5.881000000     0.244000000     3.634000000
C    -4.525000000     1.314000000     2.372000000
O    -5.472000000     1.374000000     1.345000000
C    -5.694000000     2.456000000     0.463000000
C    -5.232000000     2.443000000    -0.856000000
H    -4.559000000     1.646000000    -1.164000000
C    -6.467000000     3.497000000     0.939000000
H    -6.827000000     3.461000000     1.964000000
C    -6.814000000     4.544000000     0.094000000
H    -7.414000000     5.399000000     0.396000000
C    -6.382000000     4.596000000    -1.219000000
H    -6.761000000     5.407000000    -1.835000000
C    -5.571000000     3.540000000    -1.703000000
O    -5.291000000     3.452000000    -3.005000000
C    -4.088000000     3.111000000    -3.493000000
C    -4.106000000     2.558000000    -4.774000000
H    -5.096000000     2.342000000    -5.168000000
C    -2.910000000     2.282000000    -5.420000000
O    -2.856000000     1.695000000    -6.663000000
C    -1.836000000     0.882000000    -7.100000000
C    -1.780000000    -0.369000000    -6.524000000
H    -2.581000000    -0.779000000    -5.915000000
C    -0.857000000     1.261000000    -8.005000000
H    -0.988000000     2.222000000    -8.495000000
C     0.149000000     0.380000000    -8.349000000
H     0.789000000     0.670000000    -9.178000000
C     0.237000000    -0.888000000    -7.702000000
H     0.972000000    -1.653000000    -7.938000000
C    -0.791000000    -1.305000000    -6.842000000
O    -0.752000000    -2.547000000    -6.190000000
C     0.069000000    -2.818000000    -5.113000000
C    -0.109000000    -4.041000000    -4.557000000
H    -0.841000000    -4.739000000    -4.955000000
C     0.590000000    -4.426000000    -3.435000000
O     0.414000000    -5.642000000    -2.786000000
C     0.936000000    -6.069000000    -1.636000000
C     2.103000000    -6.888000000    -1.638000000
H     2.639000000    -7.054000000    -2.569000000
C     2.625000000    -7.271000000    -0.403000000
H     3.541000000    -7.857000000    -0.380000000
C     1.831000000    -7.139000000     0.765000000
H     2.064000000    -7.621000000     1.710000000
C     0.577000000    -6.521000000     0.689000000
C     0.208000000    -5.901000000    -0.471000000
H    -0.696000000    -5.300000000    -0.522000000
O    -5.568000000    -2.480000000     3.117000000
H    -5.036000000    -2.584000000     2.328000000
H    -4.965000000    -2.659000000     3.838000000
O    -7.744000000    -5.268000000     3.434000000
H    -7.097000000    -4.695000000     3.023000000
H    -8.083000000    -4.758000000     4.169000000
O    -4.788000000    -2.249000000    -4.260000000
H    -5.276000000    -2.720000000    -3.585000000
H    -4.421000000    -1.491000000    -3.805000000
O    -7.632000000    -7.376000000     0.446000000
H    -7.903000000    -7.522000000    -0.460000000
H    -6.804000000    -6.901000000     0.375000000
O    -5.812000000    -0.977000000    -0.622000000
H    -5.317000000    -1.747000000    -0.342000000
H    -6.497000000    -0.879000000     0.039000000
O    -6.298000000    -3.428000000    -2.321000000
H    -6.918000000    -3.249000000    -1.615000000
H    -5.443000000    -3.443000000    -1.891000000
O    -7.560000000    -1.471000000     1.389000000
H    -7.152000000    -1.565000000     2.249000000
H    -7.441000000    -2.325000000     0.973000000
O    -6.724000000    -3.750000000     0.502000000
H    -6.566000000    -4.666000000     0.274000000
H    -5.916000000    -3.467000000     0.931000000
O    -3.019000000    -7.500000000     1.104000000
H    -2.467000000    -8.242000000     1.353000000
H    -2.917000000    -7.435000000     0.154000000
O    -5.352000000    -6.178000000    -0.181000000
H    -4.649000000    -6.463000000     0.403000000
H    -5.001000000    -5.402000000    -0.618000000
O    -7.063000000    -8.176000000    -2.267000000
H    -6.979000000    -9.113000000    -2.444000000
H    -6.166000000    -7.879000000    -2.115000000
O    -3.219000000    -5.748000000    -2.815000000
H    -3.528000000    -5.358000000    -3.633000000
H    -3.611000000    -5.208000000    -2.129000000
O    -3.627000000    -4.906000000    -5.454000000
H    -4.309000000    -5.119000000    -6.091000000
H    -3.956000000    -4.128000000    -5.003000000
O    -6.390000000     0.445000000    -2.894000000
H    -7.311000000     0.190000000    -2.936000000
H    -6.052000000    -0.003000000    -2.118000000
O    -4.083000000    -4.997000000     3.195000000
H    -4.216000000    -4.552000000     2.358000000
H    -4.081000000    -5.928000000     2.975000000
O    -3.978000000    -5.287000000     6.039000000
H    -3.043000000    -5.423000000     5.883000000
H    -4.379000000    -5.367000000     5.173000000
O    -8.598000000    -4.480000000    -3.110000000
H    -7.801000000    -4.023000000    -3.377000000
H    -8.542000000    -5.332000000    -3.541000000
O    -1.015000000    -9.233000000     0.603000000
H    -0.640000000   -10.068000000     0.323000000
H    -0.922000000    -8.661000000    -0.159000000
O    -2.079000000    -7.774000000    -1.404000000
H    -2.434000000    -7.143000000    -2.029000000
H    -2.615000000    -8.558000000    -1.524000000
