201
-1222.52136
C    -3.863000000     1.052000000     2.151000000
H    -3.515000000     1.528000000     1.237000000
C    -3.003000000     1.146000000     3.264000000
C    -3.121000000     0.288000000     4.272000000
H    -2.451000000     0.289000000     5.127000000
C    -1.716000000     2.055000000     3.198000000
O    -1.991000000     3.368000000     2.762000000
H    -1.011000000     1.571000000     2.505000000
O    -1.032000000     2.064000000     4.502000000
C     0.310000000     1.875000000     4.441000000
C     0.783000000     0.551000000     4.684000000
H     0.061000000    -0.205000000     4.985000000
C     2.034000000     0.239000000     4.270000000
O     2.354000000    -1.117000000     4.345000000
C     2.975000000     1.223000000     3.874000000
C     4.417000000     0.928000000     3.466000000
H     5.166000000     1.684000000     3.711000000
C     4.520000000     0.436000000     2.020000000
C     4.688000000     1.289000000     0.950000000
H     4.788000000     2.353000000     1.148000000
H     4.800000000     0.092000000     4.055000000
C     2.515000000     2.537000000     3.602000000
H     3.113000000     3.320000000     3.142000000
C     1.171000000     2.786000000     3.836000000
C     0.651000000     4.166000000     3.512000000
H     1.551000000     4.771000000     3.643000000
H    -0.063000000     4.601000000     4.213000000
C     0.072000000     4.404000000     2.144000000
C     0.887000000     4.858000000     1.108000000
H     1.830000000     5.219000000     1.512000000
C    -1.240000000     4.035000000     1.844000000
C    -1.828000000     4.284000000     0.595000000
H    -2.777000000     3.871000000     0.263000000
C    -1.030000000     4.805000000    -0.450000000
O    -1.508000000     4.678000000    -1.752000000
C    -1.189000000     3.510000000    -2.576000000
C    -2.409000000     3.023000000    -3.443000000
C    -2.151000000     2.570000000    -4.698000000
H    -1.130000000     2.530000000    -5.067000000
C    -3.713000000     2.920000000    -2.922000000
H    -3.950000000     3.279000000    -1.924000000
O    -0.091000000     3.810000000    -3.405000000
H    -0.913000000     2.732000000    -1.848000000
C     0.346000000     5.065000000    -0.196000000
C     1.256000000     5.413000000    -1.373000000
H     2.017000000     6.112000000    -1.019000000
H     0.644000000     5.953000000    -2.098000000
C     1.845000000     4.192000000    -2.003000000
C     3.135000000     3.816000000    -1.572000000
H     3.715000000     4.365000000    -0.834000000
C     1.161000000     3.496000000    -3.018000000
C     1.572000000     2.297000000    -3.448000000
H     0.987000000     1.809000000    -4.223000000
C     2.773000000     1.807000000    -2.976000000
O     3.162000000     0.558000000    -3.433000000
C     3.042000000    -0.604000000    -2.529000000
C     2.227000000    -1.746000000    -3.126000000
C     1.211000000    -1.441000000    -4.068000000
H     0.995000000    -0.406000000    -4.321000000
C     2.506000000    -3.070000000    -2.811000000
H     3.171000000    -3.341000000    -1.995000000
O     4.371000000    -0.962000000    -1.933000000
H     2.392000000    -0.234000000    -1.723000000
C     3.612000000     2.573000000    -2.098000000
C     4.936000000     1.955000000    -1.504000000
H     5.644000000     2.737000000    -1.223000000
H     5.386000000     1.382000000    -2.318000000
C     4.717000000     0.886000000    -0.428000000
C     4.565000000    -0.446000000    -0.673000000
C     4.322000000    -1.327000000     0.359000000
H     4.179000000    -2.377000000     0.119000000
C     4.275000000    -0.892000000     1.682000000
O     3.853000000    -1.839000000     2.616000000
C     2.499000000    -1.885000000     3.083000000
H     1.902000000    -1.402000000     2.295000000
C     1.965000000    -3.289000000     3.246000000
C     0.708000000    -3.464000000     3.869000000
H     0.245000000    -2.694000000     4.480000000
C     2.521000000    -4.285000000     2.431000000
H     3.492000000    -4.226000000     1.946000000
C     1.899000000    -5.510000000     2.291000000
O     2.508000000    -6.530000000     1.530000000
C     0.679000000    -5.732000000     3.039000000
H     0.070000000    -6.614000000     2.858000000
C     0.097000000    -4.702000000     3.828000000
O    -1.038000000    -4.910000000     4.513000000
C    -1.624000000    -3.980000000     5.261000000
C    -2.819000000    -3.271000000     4.922000000
H    -3.306000000    -3.489000000     3.974000000
C    -1.081000000    -3.735000000     6.504000000
H    -0.192000000    -4.306000000     6.758000000
C    -1.620000000    -2.862000000     7.379000000
H    -1.196000000    -2.653000000     8.358000000
C    -2.731000000    -2.153000000     7.011000000
H    -3.103000000    -1.380000000     7.680000000
C    -3.297000000    -2.354000000     5.788000000
O    -4.306000000    -1.513000000     5.334000000
C    -4.159000000    -0.594000000     4.326000000
C    -5.061000000    -0.677000000     3.269000000
H    -5.868000000    -1.398000000     3.368000000
C    -4.899000000     0.117000000     2.131000000
O    -5.860000000     0.066000000     1.129000000
C    -6.142000000     1.151000000     0.348000000
C    -6.047000000     1.005000000    -0.964000000
H    -5.529000000     0.183000000    -1.452000000
C    -6.497000000     2.319000000     0.962000000
H    -6.680000000     2.319000000     2.034000000
C    -6.797000000     3.451000000     0.142000000
H    -7.212000000     4.338000000     0.615000000
C    -6.634000000     3.339000000    -1.228000000
H    -6.875000000     4.174000000    -1.881000000
C    -6.167000000     2.143000000    -1.816000000
O    -5.925000000     2.006000000    -3.135000000
C    -4.712000000     2.346000000    -3.730000000
C    -4.460000000     1.907000000    -5.044000000
H    -5.256000000     1.548000000    -5.690000000
C    -3.184000000     2.150000000    -5.533000000
O    -2.909000000     1.736000000    -6.797000000
C    -1.863000000     0.844000000    -6.985000000
C    -1.782000000    -0.356000000    -6.278000000
H    -2.615000000    -0.688000000    -5.663000000
C    -0.822000000     1.260000000    -7.845000000
H    -0.978000000     2.199000000    -8.370000000
C     0.382000000     0.569000000    -7.867000000
H     1.220000000     0.879000000    -8.486000000
C     0.436000000    -0.589000000    -7.086000000
H     1.241000000    -1.311000000    -7.199000000
C    -0.640000000    -1.089000000    -6.328000000
O    -0.492000000    -2.278000000    -5.628000000
C     0.471000000    -2.481000000    -4.673000000
C     0.769000000    -3.802000000    -4.343000000
H     0.181000000    -4.653000000    -4.678000000
C     1.729000000    -4.048000000    -3.342000000
O     1.850000000    -5.355000000    -3.046000000
C     2.597000000    -5.791000000    -2.051000000
C     3.665000000    -6.633000000    -2.424000000
H     3.788000000    -7.002000000    -3.439000000
C     4.372000000    -7.321000000    -1.469000000
H     5.169000000    -8.023000000    -1.697000000
C     4.027000000    -7.176000000    -0.134000000
H     4.520000000    -7.855000000     0.557000000
C     2.968000000    -6.335000000     0.253000000
C     2.150000000    -5.688000000    -0.721000000
H     1.268000000    -5.067000000    -0.582000000
O    -2.225000000    -5.799000000     1.306000000
H    -2.632000000    -5.050000000     0.870000000
H    -1.386000000    -5.464000000     1.624000000
O    -4.334000000    -7.459000000    -4.525000000
H    -4.164000000    -8.184000000    -3.923000000
H    -3.810000000    -6.735000000    -4.182000000
O    -4.193000000    -6.746000000    -0.901000000
H    -4.441000000    -7.570000000    -0.482000000
H    -3.927000000    -6.180000000    -0.176000000
O    -7.263000000    -4.256000000    -4.518000000
H    -6.710000000    -4.598000000    -3.816000000
H    -7.674000000    -5.033000000    -4.899000000
O    -0.682000000    -9.347000000     0.243000000
H    -0.603000000    -8.699000000    -0.457000000
H     0.180000000    -9.760000000     0.285000000
O    -7.827000000    -1.697000000    -4.109000000
H    -7.142000000    -1.302000000    -4.648000000
H    -7.698000000    -2.640000000    -4.212000000
O    -8.033000000    -2.943000000    -1.468000000
H    -7.495000000    -3.734000000    -1.503000000
H    -8.167000000    -2.703000000    -2.384000000
O    -0.470000000    -7.941000000    -4.114000000
H    -0.959000000    -8.746000000    -4.284000000
H    -0.744000000    -7.343000000    -4.809000000
O    -0.576000000    -7.090000000    -1.642000000
H    -0.551000000    -7.462000000    -2.524000000
H    -0.582000000    -6.143000000    -1.782000000
O    -5.812000000    -1.329000000    -5.896000000
H    -5.504000000    -2.139000000    -5.490000000
H    -5.374000000    -1.306000000    -6.747000000
O    -5.401000000    -4.176000000     1.589000000
H    -5.707000000    -3.293000000     1.381000000
H    -4.566000000    -4.255000000     1.126000000
O    -4.524000000    -9.556000000    -2.654000000
H    -4.474000000    -9.093000000    -1.818000000
H    -5.400000000    -9.941000000    -2.662000000
O    -6.114000000    -4.910000000    -1.899000000
H    -5.593000000    -5.676000000    -1.658000000
H    -5.469000000    -4.221000000    -2.057000000
O    -3.071000000    -5.445000000    -3.341000000
H    -2.937000000    -4.551000000    -3.028000000
H    -3.164000000    -5.967000000    -2.544000000
O    -3.699000000    -3.568000000    -7.449000000
H    -3.836000000    -2.767000000    -7.954000000
H    -4.430000000    -3.590000000    -6.830000000
O    -4.281000000    -3.192000000    -4.699000000
H    -4.108000000    -3.072000000    -3.765000000
H    -3.991000000    -4.086000000    -4.884000000
O    -3.480000000    -7.965000000     2.326000000
H    -3.735000000    -8.689000000     1.754000000
H    -3.111000000    -7.310000000     1.733000000
O    -6.869000000    -6.759000000     1.563000000
H    -6.395000000    -5.937000000     1.436000000
H    -6.883000000    -6.882000000     2.512000000
O    -7.922000000    -2.166000000     1.117000000
H    -7.902000000    -1.218000000     1.247000000
H    -7.967000000    -2.276000000     0.167000000
