201
-1228.56570
C    -4.577000000     1.049000000     2.880000000
H    -4.760000000     2.007000000     2.400000000
C    -3.386000000     0.698000000     3.522000000
C    -3.296000000    -0.547000000     4.167000000
H    -2.393000000    -0.748000000     4.739000000
C    -2.207000000     1.610000000     3.445000000
O    -2.675000000     2.995000000     3.417000000
H    -1.681000000     1.348000000     2.515000000
O    -1.325000000     1.438000000     4.596000000
C    -0.039000000     1.282000000     4.329000000
C     0.650000000     0.087000000     4.352000000
H     0.101000000    -0.830000000     4.546000000
C     2.008000000    -0.031000000     4.035000000
O     2.496000000    -1.297000000     3.879000000
C     2.672000000     1.153000000     3.715000000
C     4.137000000     1.287000000     3.315000000
H     4.585000000     2.265000000     3.502000000
C     4.489000000     0.804000000     1.893000000
C     4.622000000     1.807000000     0.929000000
H     4.598000000     2.837000000     1.275000000
H     4.676000000     0.687000000     4.052000000
C     2.043000000     2.397000000     3.823000000
H     2.592000000     3.321000000     3.664000000
C     0.736000000     2.452000000     4.143000000
C     0.065000000     3.808000000     4.044000000
H     0.832000000     4.555000000     4.262000000
H    -0.677000000     3.763000000     4.845000000
C    -0.609000000     4.058000000     2.731000000
C     0.108000000     4.759000000     1.727000000
H     1.162000000     5.001000000     1.832000000
C    -1.966000000     3.818000000     2.529000000
C    -2.473000000     4.016000000     1.265000000
H    -3.468000000     3.596000000     1.147000000
C    -1.745000000     4.610000000     0.253000000
O    -2.263000000     4.373000000    -1.001000000
C    -1.636000000     3.352000000    -1.827000000
C    -2.644000000     2.484000000    -2.589000000
C    -2.382000000     2.079000000    -3.907000000
H    -1.493000000     2.422000000    -4.430000000
C    -3.816000000     2.004000000    -1.964000000
H    -4.049000000     2.248000000    -0.931000000
O    -0.662000000     3.914000000    -2.714000000
H    -1.028000000     2.668000000    -1.216000000
C    -0.436000000     5.061000000     0.474000000
C     0.517000000     5.533000000    -0.647000000
H     1.258000000     6.216000000    -0.227000000
H    -0.237000000     6.057000000    -1.238000000
C     1.231000000     4.440000000    -1.422000000
C     2.556000000     4.151000000    -1.071000000
H     3.000000000     4.698000000    -0.244000000
C     0.652000000     3.714000000    -2.442000000
C     1.344000000     2.760000000    -3.159000000
H     0.927000000     2.085000000    -3.903000000
C     2.655000000     2.505000000    -2.861000000
O     3.097000000     1.307000000    -3.409000000
C     3.105000000     0.038000000    -2.666000000
C     2.737000000    -1.180000000    -3.560000000
C     1.861000000    -0.979000000    -4.639000000
H     1.368000000    -0.025000000    -4.806000000
C     3.269000000    -2.437000000    -3.247000000
H     3.900000000    -2.565000000    -2.372000000
O     4.405000000    -0.153000000    -2.063000000
H     2.394000000     0.050000000    -1.826000000
C     3.293000000     3.206000000    -1.836000000
C     4.623000000     2.703000000    -1.320000000
H     5.135000000     3.510000000    -0.792000000
H     5.261000000     2.491000000    -2.180000000
C     4.635000000     1.509000000    -0.393000000
C     4.605000000     0.203000000    -0.806000000
C     4.613000000    -0.862000000     0.098000000
H     4.510000000    -1.875000000    -0.285000000
C     4.449000000    -0.537000000     1.410000000
O     4.116000000    -1.608000000     2.249000000
C     2.725000000    -1.839000000     2.507000000
H     2.054000000    -1.218000000     1.895000000
C     2.287000000    -3.311000000     2.312000000
C     0.963000000    -3.564000000     2.707000000
H     0.430000000    -2.773000000     3.227000000
C     3.063000000    -4.358000000     1.835000000
H     4.089000000    -4.163000000     1.533000000
C     2.457000000    -5.561000000     1.522000000
O     3.055000000    -6.483000000     0.645000000
C     1.167000000    -5.852000000     1.910000000
H     0.679000000    -6.768000000     1.584000000
C     0.425000000    -4.859000000     2.515000000
O    -0.879000000    -5.114000000     2.838000000
C    -1.424000000    -4.569000000     3.989000000
C    -2.630000000    -3.799000000     3.978000000
H    -3.161000000    -3.636000000     3.044000000
C    -0.648000000    -4.507000000     5.138000000
H     0.379000000    -4.864000000     5.149000000
C    -1.105000000    -3.826000000     6.269000000
H    -0.408000000    -3.897000000     7.100000000
C    -2.345000000    -3.221000000     6.335000000
H    -2.698000000    -2.780000000     7.264000000
C    -3.110000000    -3.200000000     5.146000000
O    -4.343000000    -2.576000000     5.075000000
C    -4.425000000    -1.352000000     4.399000000
C    -5.617000000    -0.978000000     3.766000000
H    -6.511000000    -1.583000000     3.895000000
C    -5.708000000     0.214000000     3.066000000
O    -6.966000000     0.556000000     2.458000000
C    -7.024000000     1.246000000     1.317000000
C    -6.362000000     0.805000000     0.176000000
H    -5.751000000    -0.094000000     0.178000000
C    -7.813000000     2.380000000     1.144000000
H    -8.267000000     2.746000000     2.062000000
C    -7.887000000     3.112000000    -0.078000000
H    -8.602000000     3.924000000    -0.187000000
C    -7.169000000     2.615000000    -1.177000000
H    -7.192000000     3.235000000    -2.069000000
C    -6.496000000     1.414000000    -1.044000000
O    -5.892000000     0.794000000    -2.190000000
C    -4.723000000     1.205000000    -2.732000000
C    -4.487000000     0.920000000    -4.086000000
H    -5.147000000     0.292000000    -4.679000000
C    -3.217000000     1.250000000    -4.618000000
O    -3.052000000     1.146000000    -5.970000000
C    -1.828000000     0.802000000    -6.577000000
C    -1.296000000    -0.482000000    -6.469000000
H    -1.774000000    -1.235000000    -5.847000000
C    -1.089000000     1.744000000    -7.227000000
H    -1.518000000     2.739000000    -7.311000000
C     0.169000000     1.460000000    -7.686000000
H     0.697000000     2.228000000    -8.245000000
C     0.778000000     0.167000000    -7.463000000
H     1.786000000    -0.111000000    -7.758000000
C     0.003000000    -0.742000000    -6.793000000
O     0.510000000    -1.981000000    -6.346000000
C     1.488000000    -2.089000000    -5.388000000
C     2.088000000    -3.352000000    -5.133000000
H     1.832000000    -4.238000000    -5.708000000
C     2.982000000    -3.499000000    -4.060000000
O     3.426000000    -4.782000000    -3.779000000
C     4.086000000    -5.221000000    -2.610000000
C     5.416000000    -5.540000000    -2.643000000
H     5.921000000    -5.411000000    -3.597000000
C     6.031000000    -6.175000000    -1.561000000
H     7.075000000    -6.467000000    -1.491000000
C     5.217000000    -6.510000000    -0.466000000
H     5.603000000    -6.977000000     0.436000000
C     3.871000000    -6.203000000    -0.434000000
C     3.386000000    -5.452000000    -1.465000000
H     2.303000000    -5.351000000    -1.475000000
O     0.671000000    -3.030000000    -1.887000000
H     0.263000000    -2.270000000    -1.472000000
H     1.177000000    -2.664000000    -2.613000000
O    -5.950000000     3.554000000    -4.552000000
H    -6.768000000     3.128000000    -4.807000000
H    -5.465000000     2.877000000    -4.078000000
O    -6.181000000    -6.572000000    -4.970000000
H    -5.618000000    -6.420000000    -5.729000000
H    -6.719000000    -7.324000000    -5.218000000
O    -7.389000000    -5.616000000    -2.701000000
H    -8.320000000    -5.592000000    -2.921000000
H    -6.958000000    -5.885000000    -3.512000000
O    -3.833000000    -8.092000000    -3.154000000
H    -4.718000000    -7.823000000    -3.401000000
H    -3.434000000    -7.301000000    -2.793000000
O    -4.707000000    -2.301000000    -5.061000000
H    -4.295000000    -2.300000000    -4.197000000
H    -4.212000000    -2.950000000    -5.561000000
O    -0.667000000    -8.456000000    -1.469000000
H    -1.248000000    -8.167000000    -0.765000000
H    -0.066000000    -7.723000000    -1.599000000
O    -7.640000000    -2.297000000    -4.534000000
H    -6.790000000    -2.429000000    -4.956000000
H    -7.432000000    -2.192000000    -3.606000000
O    -5.644000000    -8.244000000     0.396000000
H    -6.027000000    -9.060000000     0.074000000
H    -4.761000000    -8.487000000     0.674000000
O    -6.765000000    -2.777000000    -2.053000000
H    -5.896000000    -2.485000000    -1.777000000
H    -6.702000000    -3.732000000    -2.072000000
O    -7.640000000    -5.564000000    -0.043000000
H    -6.978000000    -6.245000000     0.076000000
H    -7.731000000    -5.482000000    -0.993000000
O    -3.477000000    -5.157000000     0.335000000
H    -3.212000000    -5.705000000    -0.404000000
H    -3.635000000    -4.295000000    -0.050000000
O    -9.115000000    -3.564000000     1.241000000
H    -8.941000000    -2.832000000     0.650000000
H    -8.961000000    -4.344000000     0.708000000
O    -8.588000000    -1.131000000    -0.529000000
H    -7.641000000    -1.104000000    -0.664000000
H    -8.942000000    -1.417000000    -1.371000000
O    -5.359000000    -4.603000000     2.579000000
H    -5.513000000    -3.834000000     2.030000000
H    -4.667000000    -5.085000000     2.127000000
O    -3.181000000    -5.357000000    -3.099000000
H    -3.298000000    -4.408000000    -3.042000000
H    -3.698000000    -5.616000000    -3.862000000
O    -3.344000000    -7.358000000     2.467000000
H    -3.488000000    -6.663000000     1.824000000
H    -2.645000000    -7.024000000     3.028000000
O    -0.034000000    -5.748000000    -2.053000000
H     0.239000000    -4.831000000    -2.011000000
H    -0.983000000    -5.721000000    -1.935000000
O    -5.993000000    -2.592000000     0.877000000
H    -5.354000000    -2.697000000     0.172000000
H    -6.725000000    -3.154000000     0.623000000
