201
-1254.19084
C    -3.363000000     1.198000000     3.840000000
H    -3.557000000     1.988000000     3.119000000
C    -2.128000000     0.998000000     4.352000000
C    -1.861000000    -0.129000000     5.124000000
H    -0.836000000    -0.460000000     5.267000000
C    -1.001000000     1.871000000     3.795000000
O    -1.354000000     3.247000000     3.673000000
H    -0.701000000     1.512000000     2.800000000
O     0.195000000     1.735000000     4.691000000
C     1.468000000     1.604000000     4.130000000
C     2.000000000     0.334000000     4.171000000
H     1.413000000    -0.520000000     4.497000000
C     3.128000000     0.064000000     3.368000000
O     3.392000000    -1.286000000     3.267000000
C     3.898000000     1.130000000     2.827000000
C     5.082000000     0.839000000     2.047000000
H     5.839000000     1.627000000     2.072000000
C     4.709000000     0.517000000     0.613000000
C     4.862000000     1.497000000    -0.427000000
H     5.148000000     2.493000000    -0.098000000
H     5.576000000     0.014000000     2.563000000
C     3.399000000     2.436000000     2.999000000
H     4.001000000     3.259000000     2.622000000
C     2.156000000     2.693000000     3.570000000
C     1.602000000     4.111000000     3.636000000
H     2.371000000     4.883000000     3.705000000
H     1.075000000     4.170000000     4.591000000
C     0.614000000     4.298000000     2.566000000
C     1.020000000     4.815000000     1.348000000
H     2.038000000     5.194000000     1.306000000
C    -0.759000000     3.874000000     2.579000000
C    -1.535000000     3.851000000     1.371000000
H    -2.507000000     3.364000000     1.350000000
C    -1.037000000     4.358000000     0.218000000
O    -1.951000000     4.400000000    -0.826000000
C    -1.795000000     3.254000000    -1.782000000
C    -3.101000000     2.515000000    -2.113000000
C    -3.260000000     1.668000000    -3.196000000
H    -2.445000000     1.593000000    -3.910000000
C    -4.256000000     2.713000000    -1.317000000
H    -4.098000000     3.140000000    -0.330000000
O    -1.033000000     3.846000000    -2.886000000
H    -1.074000000     2.571000000    -1.310000000
C     0.237000000     4.881000000     0.187000000
C     0.758000000     5.425000000    -1.111000000
H     1.619000000     6.057000000    -0.881000000
H     0.029000000     6.110000000    -1.549000000
C     1.228000000     4.327000000    -2.081000000
C     2.527000000     3.844000000    -2.059000000
H     3.162000000     4.315000000    -1.314000000
C     0.327000000     3.643000000    -2.922000000
C     0.744000000     2.651000000    -3.795000000
H     0.053000000     2.144000000    -4.465000000
C     2.020000000     2.133000000    -3.736000000
O     2.263000000     1.054000000    -4.438000000
C     2.289000000    -0.160000000    -3.652000000
C     1.632000000    -1.332000000    -4.323000000
C     0.697000000    -1.109000000    -5.344000000
H     0.357000000    -0.146000000    -5.715000000
C     1.894000000    -2.642000000    -3.918000000
H     2.510000000    -2.829000000    -3.042000000
O     3.697000000    -0.472000000    -3.289000000
H     1.724000000     0.002000000    -2.722000000
C     2.957000000     2.799000000    -2.887000000
C     4.397000000     2.289000000    -2.729000000
H     4.933000000     3.199000000    -2.453000000
H     4.738000000     1.998000000    -3.725000000
C     4.475000000     1.177000000    -1.740000000
C     4.112000000    -0.149000000    -1.992000000
C     4.070000000    -1.112000000    -1.013000000
H     3.714000000    -2.057000000    -1.415000000
C     4.335000000    -0.790000000     0.274000000
O     4.323000000    -1.790000000     1.221000000
C     3.122000000    -1.839000000     1.984000000
H     2.240000000    -1.331000000     1.566000000
C     2.763000000    -3.247000000     2.256000000
C     1.918000000    -3.524000000     3.274000000
H     1.644000000    -2.817000000     4.052000000
C     2.925000000    -4.154000000     1.229000000
H     3.420000000    -3.767000000     0.342000000
C     2.402000000    -5.436000000     1.246000000
O     2.643000000    -6.437000000     0.300000000
C     1.508000000    -5.675000000     2.299000000
H     0.980000000    -6.625000000     2.309000000
C     1.271000000    -4.743000000     3.282000000
O     0.406000000    -5.135000000     4.316000000
C    -0.044000000    -4.339000000     5.307000000
C    -1.246000000    -3.623000000     5.217000000
H    -1.944000000    -3.806000000     4.404000000
C     0.752000000    -4.292000000     6.436000000
H     1.643000000    -4.910000000     6.351000000
C     0.392000000    -3.426000000     7.481000000
H     0.991000000    -3.443000000     8.388000000
C    -0.790000000    -2.725000000     7.424000000
H    -1.028000000    -2.098000000     8.280000000
C    -1.629000000    -2.815000000     6.292000000
O    -2.824000000    -2.137000000     6.164000000
C    -2.968000000    -0.919000000     5.561000000
C    -4.254000000    -0.634000000     5.055000000
H    -5.131000000    -1.220000000     5.318000000
C    -4.416000000     0.343000000     4.115000000
O    -5.678000000     0.545000000     3.534000000
C    -6.074000000     1.524000000     2.652000000
C    -5.933000000     1.362000000     1.281000000
H    -5.570000000     0.500000000     0.726000000
C    -6.628000000     2.740000000     3.195000000
H    -6.534000000     2.934000000     4.261000000
C    -7.072000000     3.741000000     2.286000000
H    -7.259000000     4.696000000     2.770000000
C    -6.918000000     3.505000000     0.934000000
H    -7.100000000     4.311000000     0.227000000
C    -6.456000000     2.285000000     0.452000000
O    -6.552000000     2.104000000    -0.892000000
C    -5.449000000     2.020000000    -1.667000000
C    -5.561000000     1.231000000    -2.778000000
H    -6.430000000     0.655000000    -3.088000000
C    -4.446000000     1.124000000    -3.592000000
O    -4.610000000     0.516000000    -4.831000000
C    -3.658000000     0.423000000    -5.796000000
C    -2.715000000    -0.635000000    -5.788000000
H    -2.618000000    -1.222000000    -4.878000000
C    -3.769000000     1.139000000    -7.025000000
H    -4.558000000     1.883000000    -7.105000000
C    -2.821000000     0.965000000    -7.994000000
H    -2.884000000     1.657000000    -8.831000000
C    -1.957000000    -0.127000000    -8.019000000
H    -1.288000000    -0.266000000    -8.864000000
C    -1.866000000    -0.898000000    -6.860000000
O    -1.002000000    -1.955000000    -6.852000000
C    -0.041000000    -2.187000000    -5.869000000
C     0.204000000    -3.481000000    -5.378000000
H    -0.332000000    -4.367000000    -5.707000000
C     1.118000000    -3.693000000    -4.397000000
O     1.287000000    -5.066000000    -4.053000000
C     2.306000000    -5.562000000    -3.263000000
C     3.400000000    -6.170000000    -3.848000000
H     3.515000000    -6.228000000    -4.928000000
C     4.298000000    -6.849000000    -2.973000000
H     5.192000000    -7.192000000    -3.488000000
C     3.982000000    -6.987000000    -1.648000000
H     4.625000000    -7.550000000    -0.976000000
C     2.877000000    -6.406000000    -1.074000000
C     2.035000000    -5.673000000    -1.852000000
H     1.074000000    -5.249000000    -1.570000000
O    -1.801000000    -6.059000000    -0.947000000
H    -1.914000000    -6.977000000    -0.702000000
H    -2.380000000    -5.580000000    -0.354000000
O    -5.573000000    -9.082000000    -0.121000000
H    -5.873000000    -8.234000000     0.208000000
H    -6.271000000    -9.370000000    -0.710000000
O   -10.714000000    -3.763000000    -1.453000000
H   -11.506000000    -3.229000000    -1.506000000
H   -10.103000000    -3.346000000    -2.060000000
O    -9.903000000    -2.424000000    -3.650000000
H    -8.970000000    -2.214000000    -3.636000000
H   -10.341000000    -1.573000000    -3.649000000
O    -4.653000000    -4.051000000     4.748000000
H    -4.217000000    -4.309000000     3.936000000
H    -4.915000000    -3.142000000     4.601000000
O    -7.020000000    -2.139000000    -3.153000000
H    -6.318000000    -2.490000000    -2.605000000
H    -6.578000000    -1.531000000    -3.746000000
O    -7.646000000    -3.619000000     4.841000000
H    -8.491000000    -3.210000000     4.657000000
H    -7.097000000    -3.382000000     4.094000000
O    -7.316000000    -3.665000000    -0.149000000
H    -6.400000000    -3.497000000     0.073000000
H    -7.276000000    -4.279000000    -0.882000000
O    -6.395000000    -6.562000000     0.520000000
H    -7.190000000    -6.513000000     1.050000000
H    -6.634000000    -6.149000000    -0.310000000
O    -4.001000000    -5.231000000     1.397000000
H    -4.798000000    -5.699000000     1.149000000
H    -4.208000000    -4.309000000     1.245000000
O    -3.321000000    -4.100000000    -5.725000000
H    -3.099000000    -5.018000000    -5.879000000
H    -3.145000000    -3.964000000    -4.793000000
O    -8.621000000    -1.205000000    -0.144000000
H    -8.100000000    -2.001000000    -0.038000000
H    -8.267000000    -0.790000000    -0.931000000
O    -9.897000000    -3.980000000     1.644000000
H    -9.018000000    -3.926000000     1.269000000
H   -10.479000000    -3.715000000     0.931000000
O    -6.816000000    -5.354000000    -2.132000000
H    -5.934000000    -5.649000000    -2.359000000
H    -7.392000000    -5.845000000    -2.718000000
O    -3.654000000    -7.614000000     3.018000000
H    -3.670000000    -6.919000000     2.360000000
H    -4.573000000    -7.740000000     3.255000000
O    -9.171000000    -1.248000000     3.226000000
H   -10.098000000    -1.346000000     3.443000000
H    -9.164000000    -1.029000000     2.295000000
O    -5.905000000    -5.893000000    -5.080000000
H    -5.719000000    -6.516000000    -5.782000000
H    -5.125000000    -5.340000000    -5.037000000
O    -3.350000000    -4.654000000    -3.115000000
H    -3.743000000    -3.974000000    -2.568000000
H    -2.574000000    -4.933000000    -2.630000000
O    -5.959000000    -2.262000000     2.641000000
H    -6.357000000    -1.399000000     2.523000000
H    -5.532000000    -2.446000000     1.804000000
