201
-1227.04142
C    -2.455000000     1.456000000     3.716000000
H    -2.613000000     2.143000000     2.888000000
C    -1.287000000     1.339000000     4.318000000
C    -1.116000000     0.406000000     5.385000000
H    -0.184000000     0.364000000     5.942000000
C    -0.165000000     2.206000000     3.780000000
O    -0.675000000     3.536000000     3.496000000
H     0.141000000     1.887000000     2.773000000
O     0.958000000     2.211000000     4.681000000
C     2.102000000     1.994000000     4.029000000
C     2.479000000     0.721000000     3.906000000
H     1.939000000    -0.043000000     4.461000000
C     3.533000000     0.347000000     3.084000000
O     3.837000000    -0.991000000     2.984000000
C     4.189000000     1.323000000     2.286000000
C     5.350000000     1.033000000     1.413000000
H     5.703000000     2.036000000     1.165000000
C     4.922000000     0.412000000     0.049000000
C     4.775000000     1.301000000    -1.089000000
H     5.126000000     2.329000000    -1.124000000
H     6.067000000     0.426000000     1.970000000
C     3.645000000     2.589000000     2.208000000
H     4.125000000     3.339000000     1.585000000
C     2.598000000     2.961000000     3.094000000
C     2.082000000     4.429000000     2.983000000
H     2.999000000     4.873000000     2.591000000
H     1.927000000     4.842000000     3.981000000
C     0.953000000     4.511000000     1.950000000
C     1.301000000     4.864000000     0.632000000
H     2.298000000     5.162000000     0.317000000
C    -0.304000000     4.050000000     2.261000000
C    -1.318000000     4.203000000     1.275000000
H    -2.380000000     4.106000000     1.486000000
C    -1.004000000     4.465000000    -0.022000000
O    -1.981000000     4.407000000    -1.004000000
C    -1.997000000     3.151000000    -1.753000000
C    -3.411000000     2.552000000    -2.021000000
C    -3.728000000     1.793000000    -3.154000000
H    -2.967000000     1.580000000    -3.901000000
C    -4.392000000     2.925000000    -1.131000000
H    -4.197000000     3.554000000    -0.267000000
O    -1.403000000     3.461000000    -3.050000000
H    -1.336000000     2.409000000    -1.281000000
C     0.287000000     4.779000000    -0.314000000
C     0.630000000     5.096000000    -1.753000000
H     1.541000000     5.696000000    -1.794000000
H    -0.137000000     5.706000000    -2.236000000
C     0.875000000     3.846000000    -2.640000000
C     2.205000000     3.371000000    -2.778000000
H     3.025000000     3.901000000    -2.300000000
C    -0.079000000     3.198000000    -3.329000000
C     0.277000000     2.020000000    -4.080000000
H    -0.586000000     1.572000000    -4.567000000
C     1.553000000     1.607000000    -4.206000000
O     1.719000000     0.329000000    -4.661000000
C     1.734000000    -0.808000000    -3.733000000
C     0.856000000    -1.897000000    -4.202000000
C    -0.270000000    -1.652000000    -5.005000000
H    -0.289000000    -0.692000000    -5.513000000
C     1.075000000    -3.106000000    -3.595000000
H     1.935000000    -3.218000000    -2.940000000
O     3.148000000    -1.130000000    -3.505000000
H     1.343000000    -0.490000000    -2.755000000
C     2.579000000     2.251000000    -3.501000000
C     4.007000000     1.688000000    -3.499000000
H     4.798000000     2.441000000    -3.506000000
H     4.112000000     1.108000000    -4.418000000
C     4.225000000     0.791000000    -2.294000000
C     3.734000000    -0.569000000    -2.334000000
C     3.933000000    -1.464000000    -1.239000000
H     3.645000000    -2.512000000    -1.259000000
C     4.635000000    -0.987000000    -0.081000000
O     4.746000000    -1.814000000     1.036000000
C     3.541000000    -1.674000000     1.770000000
H     2.848000000    -1.029000000     1.209000000
C     2.957000000    -3.020000000     2.009000000
C     1.902000000    -3.173000000     2.887000000
H     1.577000000    -2.347000000     3.514000000
C     3.438000000    -4.133000000     1.333000000
H     4.367000000    -4.151000000     0.769000000
C     2.813000000    -5.368000000     1.451000000
O     3.245000000    -6.453000000     0.651000000
C     1.758000000    -5.527000000     2.344000000
H     1.283000000    -6.504000000     2.388000000
C     1.301000000    -4.412000000     3.069000000
O     0.355000000    -4.640000000     4.032000000
C     0.224000000    -3.845000000     5.157000000
C    -0.812000000    -3.013000000     5.354000000
H    -1.559000000    -2.918000000     4.570000000
C     1.233000000    -4.006000000     6.130000000
H     2.156000000    -4.574000000     6.042000000
C     1.092000000    -3.416000000     7.398000000
H     1.774000000    -3.479000000     8.241000000
C     0.015000000    -2.541000000     7.578000000
H    -0.031000000    -2.038000000     8.540000000
C    -0.936000000    -2.343000000     6.573000000
O    -1.861000000    -1.343000000     6.689000000
C    -2.105000000    -0.417000000     5.766000000
C    -3.298000000    -0.394000000     5.076000000
H    -4.021000000    -1.156000000     5.354000000
C    -3.480000000     0.563000000     4.054000000
O    -4.675000000     0.607000000     3.382000000
C    -5.258000000     1.708000000     2.815000000
C    -5.507000000     1.687000000     1.456000000
H    -5.035000000     0.875000000     0.909000000
C    -5.685000000     2.749000000     3.626000000
H    -5.465000000     2.837000000     4.687000000
C    -6.472000000     3.808000000     3.055000000
H    -6.783000000     4.690000000     3.608000000
C    -6.840000000     3.736000000     1.739000000
H    -7.585000000     4.323000000     1.208000000
C    -6.292000000     2.680000000     0.935000000
O    -6.613000000     2.649000000    -0.396000000
C    -5.694000000     2.623000000    -1.403000000
C    -6.026000000     1.761000000    -2.446000000
H    -7.059000000     1.439000000    -2.559000000
C    -5.070000000     1.456000000    -3.363000000
O    -5.463000000     0.675000000    -4.432000000
C    -4.543000000     0.247000000    -5.310000000
C    -3.939000000    -1.018000000    -5.145000000
H    -4.251000000    -1.657000000    -4.323000000
C    -4.135000000     1.166000000    -6.290000000
H    -4.556000000     2.161000000    -6.415000000
C    -3.104000000     0.755000000    -7.141000000
H    -2.734000000     1.503000000    -7.838000000
C    -2.490000000    -0.471000000    -7.101000000
H    -1.790000000    -0.709000000    -7.898000000
C    -2.974000000    -1.379000000    -6.119000000
O    -2.296000000    -2.586000000    -5.972000000
C    -1.169000000    -2.721000000    -5.190000000
C    -1.114000000    -3.856000000    -4.325000000
H    -1.812000000    -4.686000000    -4.403000000
C     0.062000000    -4.113000000    -3.635000000
O     0.169000000    -5.335000000    -2.992000000
C     1.308000000    -5.966000000    -2.555000000
C     2.199000000    -6.514000000    -3.444000000
H     1.944000000    -6.491000000    -4.501000000
C     3.451000000    -7.092000000    -3.007000000
H     4.138000000    -7.539000000    -3.720000000
C     3.785000000    -7.032000000    -1.599000000
H     4.794000000    -7.328000000    -1.322000000
C     2.881000000    -6.506000000    -0.719000000
C     1.648000000    -5.976000000    -1.174000000
H     0.897000000    -5.485000000    -0.560000000
O    -1.931000000    -4.356000000     0.893000000
H    -1.499000000    -3.509000000     1.002000000
H    -2.543000000    -4.409000000     1.626000000
O    -5.858000000    -4.337000000    -6.528000000
H    -5.176000000    -4.958000000    -6.784000000
H    -5.733000000    -4.218000000    -5.587000000
O    -4.366000000    -5.167000000     2.079000000
H    -5.159000000    -4.845000000     1.649000000
H    -4.381000000    -6.113000000     1.931000000
O    -7.105000000    -1.619000000    -3.191000000
H    -6.170000000    -1.734000000    -3.023000000
H    -7.188000000    -1.686000000    -4.142000000
O    -2.037000000    -7.395000000    -0.501000000
H    -2.613000000    -8.089000000    -0.180000000
H    -2.501000000    -7.028000000    -1.254000000
O    -8.034000000    -0.217000000     5.088000000
H    -8.567000000    -0.921000000     5.457000000
H    -7.359000000    -0.668000000     4.581000000
O    -5.394000000    -7.209000000    -1.333000000
H    -4.808000000    -7.923000000    -1.586000000
H    -4.843000000    -6.427000000    -1.357000000
O    -7.714000000    -0.556000000    -0.684000000
H    -6.890000000    -0.755000000    -0.240000000
H    -7.568000000    -0.824000000    -1.591000000
O    -2.537000000    -5.326000000     4.121000000
H    -2.923000000    -5.032000000     4.946000000
H    -3.243000000    -5.237000000     3.481000000
O    -6.949000000    -1.660000000     2.984000000
H    -7.367000000    -2.224000000     2.333000000
H    -6.195000000    -1.285000000     2.528000000
O    -5.869000000    -4.508000000    -3.413000000
H    -5.102000000    -4.982000000    -3.091000000
H    -6.018000000    -3.824000000    -2.760000000
O    -9.646000000     1.978000000    -0.927000000
H    -8.874000000     2.123000000    -0.380000000
H   -10.082000000     2.829000000    -0.957000000
O    -7.269000000    -6.000000000     1.372000000
H    -7.483000000    -6.512000000     0.592000000
H    -7.276000000    -5.091000000     1.072000000
O    -7.680000000    -6.271000000    -2.524000000
H    -7.069000000    -5.569000000    -2.749000000
H    -7.165000000    -6.874000000    -1.988000000
O    -7.660000000    -2.357000000    -5.830000000
H    -7.264000000    -3.216000000    -5.976000000
H    -8.594000000    -2.494000000    -5.984000000
O    -9.859000000    -0.450000000     0.802000000
H    -9.044000000    -0.442000000     0.299000000
H   -10.418000000    -1.077000000     0.343000000
O    -7.669000000    -3.354000000     0.500000000
H    -8.343000000    -3.022000000    -0.092000000
H    -6.894000000    -2.829000000     0.300000000
O    -3.657000000    -4.914000000    -1.617000000
H    -4.084000000    -4.058000000    -1.580000000
H    -2.861000000    -4.807000000    -1.096000000
O    -6.814000000    -3.540000000     5.247000000
H    -7.107000000    -2.956000000     4.547000000
H    -7.541000000    -3.552000000     5.868000000
