201
-1229.06007
C    -2.011000000     2.511000000     4.109000000
H    -2.148000000     3.477000000     3.630000000
C    -0.766000000     1.974000000     4.103000000
C    -0.626000000     0.710000000     4.599000000
H     0.311000000     0.167000000     4.511000000
C     0.332000000     2.550000000     3.273000000
O    -0.037000000     3.920000000     2.924000000
H     0.434000000     1.822000000     2.455000000
O     1.544000000     2.563000000     3.916000000
C     2.616000000     2.138000000     3.157000000
C     3.105000000     0.840000000     3.343000000
H     2.615000000     0.147000000     4.023000000
C     4.000000000     0.321000000     2.444000000
O     4.313000000    -0.991000000     2.488000000
C     4.714000000     1.137000000     1.533000000
C     5.606000000     0.403000000     0.566000000
H     6.334000000     1.136000000     0.211000000
C     4.953000000    -0.268000000    -0.625000000
C     4.651000000     0.429000000    -1.788000000
H     5.051000000     1.436000000    -1.881000000
H     6.206000000    -0.360000000     1.065000000
C     4.253000000     2.431000000     1.426000000
H     4.701000000     3.137000000     0.731000000
C     3.203000000     2.914000000     2.158000000
C     2.759000000     4.349000000     2.000000000
H     3.581000000     4.920000000     1.563000000
H     2.695000000     4.630000000     3.053000000
C     1.530000000     4.467000000     1.141000000
C     1.736000000     4.597000000    -0.268000000
H     2.673000000     4.916000000    -0.717000000
C     0.245000000     4.319000000     1.643000000
C    -0.881000000     4.226000000     0.809000000
H    -1.865000000     3.970000000     1.193000000
C    -0.653000000     4.324000000    -0.612000000
O    -1.721000000     4.215000000    -1.502000000
C    -1.990000000     2.979000000    -2.106000000
C    -3.464000000     2.770000000    -2.037000000
C    -4.098000000     2.074000000    -3.064000000
H    -3.495000000     1.656000000    -3.866000000
C    -4.217000000     3.093000000    -0.890000000
H    -3.851000000     3.650000000    -0.032000000
O    -1.560000000     2.984000000    -3.491000000
H    -1.547000000     2.134000000    -1.559000000
C     0.575000000     4.688000000    -1.152000000
C     0.838000000     4.700000000    -2.648000000
H     1.807000000     5.183000000    -2.790000000
H     0.145000000     5.408000000    -3.107000000
C     0.874000000     3.343000000    -3.250000000
C     2.128000000     2.697000000    -3.363000000
H     3.006000000     3.226000000    -3.001000000
C    -0.241000000     2.680000000    -3.809000000
C    -0.124000000     1.372000000    -4.254000000
H    -1.040000000     0.811000000    -4.421000000
C     1.121000000     0.734000000    -4.359000000
O     1.184000000    -0.538000000    -4.778000000
C     1.268000000    -1.542000000    -3.742000000
C     0.224000000    -2.665000000    -4.014000000
C    -1.099000000    -2.343000000    -4.310000000
H    -1.295000000    -1.274000000    -4.340000000
C     0.561000000    -3.979000000    -3.615000000
H     1.553000000    -4.224000000    -3.245000000
O     2.546000000    -2.041000000    -3.701000000
H     1.095000000    -1.124000000    -2.740000000
C     2.263000000     1.425000000    -4.003000000
C     3.629000000     0.762000000    -4.076000000
H     4.391000000     1.513000000    -4.291000000
H     3.679000000     0.160000000    -4.986000000
C     3.862000000    -0.110000000    -2.837000000
C     3.462000000    -1.449000000    -2.809000000
C     3.898000000    -2.217000000    -1.729000000
H     3.599000000    -3.258000000    -1.640000000
C     4.582000000    -1.638000000    -0.608000000
O     4.558000000    -2.323000000     0.504000000
C     3.682000000    -1.918000000     1.514000000
H     2.865000000    -1.328000000     1.073000000
C     3.099000000    -3.115000000     2.216000000
C     2.924000000    -3.236000000     3.578000000
H     3.351000000    -2.522000000     4.278000000
C     2.531000000    -4.069000000     1.415000000
H     2.560000000    -3.922000000     0.339000000
C     1.798000000    -5.200000000     1.974000000
O     1.180000000    -6.168000000     1.270000000
C     1.633000000    -5.276000000     3.335000000
H     0.973000000    -6.054000000     3.710000000
C     2.164000000    -4.282000000     4.154000000
O     1.981000000    -4.364000000     5.528000000
C     1.418000000    -3.300000000     6.219000000
C     0.163000000    -2.866000000     5.783000000
H    -0.418000000    -3.360000000     5.008000000
C     2.121000000    -2.621000000     7.203000000
H     3.060000000    -3.041000000     7.554000000
C     1.603000000    -1.426000000     7.786000000
H     2.067000000    -0.820000000     8.560000000
C     0.310000000    -0.987000000     7.405000000
H    -0.186000000    -0.119000000     7.831000000
C    -0.391000000    -1.671000000     6.354000000
O    -1.552000000    -1.169000000     5.901000000
C    -1.630000000     0.086000000     5.295000000
C    -2.860000000     0.739000000     5.396000000
H    -3.735000000     0.353000000     5.911000000
C    -3.074000000     1.978000000     4.736000000
O    -4.374000000     2.551000000     4.736000000
C    -4.827000000     3.363000000     3.691000000
C    -5.217000000     2.717000000     2.500000000
H    -5.000000000     1.658000000     2.385000000
C    -5.305000000     4.672000000     3.970000000
H    -5.157000000     5.085000000     4.964000000
C    -6.028000000     5.369000000     3.017000000
H    -6.170000000     6.445000000     3.058000000
C    -6.279000000     4.815000000     1.773000000
H    -6.929000000     5.258000000     1.023000000
C    -5.855000000     3.495000000     1.529000000
O    -6.249000000     2.855000000     0.333000000
C    -5.514000000     2.580000000    -0.758000000
C    -6.148000000     1.976000000    -1.807000000
H    -7.213000000     1.759000000    -1.772000000
C    -5.464000000     1.707000000    -3.001000000
O    -5.919000000     1.013000000    -4.119000000
C    -5.064000000     0.215000000    -4.956000000
C    -4.677000000    -1.056000000    -4.494000000
H    -5.063000000    -1.379000000    -3.531000000
C    -4.682000000     0.637000000    -6.212000000
H    -4.817000000     1.611000000    -6.676000000
C    -3.830000000    -0.173000000    -7.032000000
H    -3.440000000     0.174000000    -7.985000000
C    -3.400000000    -1.399000000    -6.447000000
H    -2.722000000    -2.050000000    -6.994000000
C    -3.797000000    -1.807000000    -5.213000000
O    -3.343000000    -3.040000000    -4.731000000
C    -2.075000000    -3.291000000    -4.381000000
C    -1.739000000    -4.575000000    -4.148000000
H    -2.515000000    -5.334000000    -4.200000000
C    -0.467000000    -4.954000000    -3.708000000
O    -0.251000000    -6.308000000    -3.354000000
C     0.773000000    -6.492000000    -2.430000000
C     2.115000000    -6.875000000    -2.778000000
H     2.346000000    -7.033000000    -3.828000000
C     3.082000000    -7.136000000    -1.847000000
H     3.988000000    -7.505000000    -2.322000000
C     2.744000000    -6.823000000    -0.497000000
H     3.347000000    -7.156000000     0.344000000
C     1.405000000    -6.386000000    -0.077000000
C     0.459000000    -6.218000000    -1.029000000
H    -0.584000000    -6.026000000    -0.789000000
O    -2.991000000    -9.651000000     4.385000000
H    -2.865000000    -8.821000000     4.845000000
H    -3.906000000    -9.879000000     4.549000000
O     0.290000000    -9.130000000     4.800000000
H     0.432000000    -9.383000000     3.887000000
H    -0.362000000    -8.431000000     4.756000000
O    -3.460000000    -9.112000000     1.140000000
H    -2.785000000    -9.511000000     0.592000000
H    -3.279000000    -9.441000000     2.021000000
O    -3.108000000    -6.684000000    -1.482000000
H    -4.054000000    -6.782000000    -1.592000000
H    -3.009000000    -5.879000000    -0.974000000
O    -9.118000000    -3.505000000    -0.272000000
H    -8.210000000    -3.722000000    -0.062000000
H    -9.511000000    -3.274000000     0.570000000
O    -3.704000000    -2.448000000     3.467000000
H    -4.383000000    -3.017000000     3.829000000
H    -3.114000000    -3.044000000     3.006000000
O    -4.551000000    -2.949000000    -1.393000000
H    -4.101000000    -3.417000000    -0.689000000
H    -3.954000000    -3.006000000    -2.139000000
O    -4.290000000    -2.944000000     6.335000000
H    -5.031000000    -3.475000000     6.042000000
H    -3.951000000    -2.543000000     5.535000000
O    -5.739000000    -6.522000000    -2.152000000
H    -6.371000000    -6.012000000    -2.659000000
H    -6.228000000    -6.810000000    -1.381000000
O    -5.637000000    -6.571000000     4.066000000
H    -5.160000000    -6.367000000     3.262000000
H    -6.130000000    -7.365000000     3.858000000
O    -7.316000000    -3.058000000     3.025000000
H    -6.794000000    -3.588000000     2.422000000
H    -7.557000000    -2.284000000     2.516000000
O    -3.272000000    -0.502000000     1.295000000
H    -3.059000000    -1.142000000     1.975000000
H    -2.632000000    -0.667000000     0.602000000
O    -5.776000000    -1.426000000     0.585000000
H    -4.959000000    -0.928000000     0.603000000
H    -5.551000000    -2.240000000     0.136000000
O    -4.237000000    -6.579000000     1.725000000
H    -3.791000000    -7.411000000     1.572000000
H    -3.622000000    -5.916000000     1.411000000
O    -6.287000000    -4.455000000     1.103000000
H    -5.360000000    -4.642000000     0.956000000
H    -6.736000000    -5.264000000     0.855000000
O    -1.914000000    -8.887000000    -2.569000000
H    -2.625000000    -9.119000000    -3.166000000
H    -2.160000000    -8.028000000    -2.225000000
O    -6.124000000    -4.073000000     5.061000000
H    -6.005000000    -5.003000000     4.870000000
H    -6.707000000    -3.758000000     4.370000000
O    -3.174000000    -7.565000000     5.827000000
H    -2.672000000    -6.916000000     5.335000000
H    -4.022000000    -7.147000000     5.979000000
O    -1.561000000    -6.622000000     3.265000000
H    -0.977000000    -6.603000000     2.507000000
H    -2.104000000    -5.840000000     3.169000000
