201
-1246.54068
C    -3.063000000     1.997000000     3.818000000
H    -3.399000000     2.893000000     3.302000000
C    -1.691000000     1.643000000     3.881000000
C    -1.352000000     0.543000000     4.702000000
H    -0.306000000     0.248000000     4.672000000
C    -0.747000000     2.563000000     3.118000000
O    -1.245000000     3.829000000     2.725000000
H    -0.572000000     2.058000000     2.157000000
O     0.489000000     2.733000000     3.866000000
C     1.710000000     2.511000000     3.257000000
C     2.475000000     1.405000000     3.550000000
H     2.006000000     0.634000000     4.155000000
C     3.632000000     1.166000000     2.911000000
O     4.206000000    -0.065000000     3.102000000
C     4.162000000     2.016000000     1.956000000
C     5.393000000     1.577000000     1.134000000
H     6.008000000     2.415000000     0.798000000
C     4.944000000     0.690000000    -0.065000000
C     4.767000000     1.343000000    -1.263000000
H     4.970000000     2.402000000    -1.403000000
H     6.167000000     1.015000000     1.661000000
C     3.499000000     3.244000000     1.755000000
H     3.911000000     4.010000000     1.104000000
C     2.244000000     3.460000000     2.321000000
C     1.490000000     4.803000000     2.197000000
H     2.148000000     5.624000000     1.904000000
H     1.104000000     5.138000000     3.162000000
C     0.401000000     4.690000000     1.155000000
C     0.825000000     4.894000000    -0.166000000
H     1.861000000     5.134000000    -0.392000000
C    -0.869000000     4.211000000     1.440000000
C    -1.807000000     4.102000000     0.385000000
H    -2.780000000     3.641000000     0.529000000
C    -1.426000000     4.301000000    -0.961000000
O    -2.212000000     3.823000000    -1.918000000
C    -1.964000000     2.564000000    -2.557000000
C    -3.232000000     1.622000000    -2.654000000
C    -3.697000000     1.153000000    -3.835000000
H    -3.169000000     1.337000000    -4.767000000
C    -3.911000000     1.300000000    -1.488000000
H    -3.553000000     1.764000000    -0.572000000
O    -1.396000000     2.818000000    -3.827000000
H    -1.329000000     1.970000000    -1.883000000
C    -0.094000000     4.634000000    -1.215000000
C     0.378000000     4.814000000    -2.683000000
H     1.158000000     5.578000000    -2.663000000
H    -0.448000000     5.213000000    -3.275000000
C     0.905000000     3.483000000    -3.223000000
C     2.229000000     3.098000000    -3.133000000
H     2.929000000     3.703000000    -2.563000000
C    -0.058000000     2.629000000    -3.861000000
C     0.315000000     1.458000000    -4.473000000
H    -0.414000000     0.789000000    -4.921000000
C     1.660000000     1.131000000    -4.521000000
O     2.033000000    -0.133000000    -4.886000000
C     2.003000000    -1.039000000    -3.741000000
C     1.158000000    -2.251000000    -3.965000000
C     0.237000000    -2.400000000    -5.033000000
H     0.046000000    -1.563000000    -5.699000000
C     1.152000000    -3.260000000    -3.003000000
H     1.799000000    -3.197000000    -2.132000000
O     3.305000000    -1.419000000    -3.246000000
H     1.504000000    -0.481000000    -2.935000000
C     2.584000000     1.852000000    -3.732000000
C     4.083000000     1.472000000    -3.656000000
H     4.621000000     2.412000000    -3.796000000
H     4.450000000     0.887000000    -4.503000000
C     4.312000000     0.670000000    -2.389000000
C     3.985000000    -0.704000000    -2.274000000
C     4.200000000    -1.359000000    -1.060000000
H     3.876000000    -2.389000000    -0.934000000
C     4.741000000    -0.711000000     0.024000000
O     4.738000000    -1.380000000     1.231000000
C     3.772000000    -1.080000000     2.242000000
H     2.943000000    -0.632000000     1.675000000
C     3.295000000    -2.320000000     2.976000000
C     3.039000000    -2.327000000     4.368000000
H     3.323000000    -1.423000000     4.900000000
C     2.985000000    -3.466000000     2.221000000
H     3.177000000    -3.428000000     1.152000000
C     2.367000000    -4.537000000     2.882000000
O     2.095000000    -5.670000000     2.202000000
C     2.123000000    -4.547000000     4.234000000
H     1.411000000    -5.260000000     4.642000000
C     2.444000000    -3.435000000     4.973000000
O     2.159000000    -3.513000000     6.317000000
C     1.239000000    -2.644000000     6.730000000
C     0.044000000    -2.434000000     6.023000000
H    -0.072000000    -2.936000000     5.066000000
C     1.355000000    -2.204000000     8.046000000
H     2.288000000    -2.392000000     8.572000000
C     0.379000000    -1.293000000     8.563000000
H     0.474000000    -0.738000000     9.492000000
C    -0.815000000    -1.177000000     7.914000000
H    -1.600000000    -0.483000000     8.201000000
C    -0.983000000    -1.744000000     6.640000000
O    -2.118000000    -1.451000000     5.981000000
C    -2.327000000    -0.210000000     5.374000000
C    -3.672000000     0.148000000     5.233000000
H    -4.518000000    -0.350000000     5.699000000
C    -4.035000000     1.158000000     4.378000000
O    -5.363000000     1.430000000     4.196000000
C    -5.685000000     1.861000000     2.950000000
C    -5.733000000     0.925000000     1.902000000
H    -5.480000000    -0.112000000     2.108000000
C    -6.064000000     3.205000000     2.717000000
H    -6.090000000     3.918000000     3.537000000
C    -6.384000000     3.605000000     1.436000000
H    -6.744000000     4.624000000     1.318000000
C    -6.320000000     2.720000000     0.408000000
H    -6.461000000     3.086000000    -0.606000000
C    -5.941000000     1.358000000     0.612000000
O    -5.926000000     0.449000000    -0.403000000
C    -5.174000000     0.656000000    -1.549000000
C    -5.621000000     0.067000000    -2.719000000
H    -6.507000000    -0.560000000    -2.653000000
C    -4.803000000     0.302000000    -3.830000000
O    -5.165000000    -0.325000000    -4.993000000
C    -4.265000000    -0.912000000    -5.904000000
C    -3.360000000    -1.915000000    -5.478000000
H    -3.474000000    -2.379000000    -4.502000000
C    -4.072000000    -0.242000000    -7.146000000
H    -4.751000000     0.565000000    -7.408000000
C    -3.054000000    -0.620000000    -7.995000000
H    -2.999000000    -0.061000000    -8.925000000
C    -2.332000000    -1.751000000    -7.683000000
H    -1.507000000    -2.010000000    -8.341000000
C    -2.406000000    -2.369000000    -6.403000000
O    -1.571000000    -3.429000000    -6.211000000
C    -0.620000000    -3.480000000    -5.154000000
C    -0.512000000    -4.497000000    -4.273000000
H    -1.089000000    -5.394000000    -4.481000000
C     0.347000000    -4.365000000    -3.186000000
O     0.282000000    -5.308000000    -2.205000000
C     1.391000000    -5.633000000    -1.422000000
C     2.504000000    -6.306000000    -1.927000000
H     2.602000000    -6.385000000    -3.007000000
C     3.560000000    -6.622000000    -1.083000000
H     4.405000000    -7.108000000    -1.564000000
C     3.434000000    -6.378000000     0.332000000
H     4.239000000    -6.594000000     1.029000000
C     2.257000000    -5.892000000     0.837000000
C     1.256000000    -5.450000000    -0.064000000
H     0.302000000    -5.076000000     0.299000000
O    -6.616000000    -7.780000000    -1.499000000
H    -6.449000000    -6.838000000    -1.528000000
H    -7.088000000    -7.964000000    -2.311000000
O    -4.195000000    -8.875000000     1.611000000
H    -4.984000000    -9.182000000     1.165000000
H    -4.222000000    -7.923000000     1.517000000
O    -5.406000000    -5.627000000    -2.732000000
H    -4.518000000    -5.973000000    -2.650000000
H    -5.416000000    -4.856000000    -2.164000000
O    -5.748000000    -6.912000000     4.874000000
H    -4.908000000    -7.334000000     4.692000000
H    -5.611000000    -6.455000000     5.704000000
O    -2.543000000    -5.659000000     4.005000000
H    -2.442000000    -5.358000000     4.907000000
H    -2.736000000    -4.864000000     3.507000000
O    -5.213000000    -5.070000000     6.819000000
H    -5.210000000    -4.166000000     6.505000000
H    -4.367000000    -5.175000000     7.255000000
O    -5.453000000    -3.614000000     4.334000000
H    -5.579000000    -4.560000000     4.269000000
H    -4.675000000    -3.438000000     3.805000000
O    -2.547000000    -5.344000000    -1.763000000
H    -2.830000000    -4.964000000    -0.931000000
H    -1.688000000    -4.954000000    -1.924000000
O    -6.822000000    -6.905000000     2.286000000
H    -6.620000000    -6.942000000     3.221000000
H    -6.040000000    -6.523000000     1.888000000
O    -0.242000000    -7.893000000    -0.414000000
H    -0.397000000    -7.501000000     0.446000000
H     0.088000000    -7.172000000    -0.950000000
O    -7.719000000    -1.384000000     2.899000000
H    -7.433000000    -1.857000000     2.117000000
H    -6.973000000    -1.437000000     3.496000000
O    -1.410000000    -7.820000000    -3.901000000
H    -1.860000000    -8.601000000    -3.580000000
H    -1.338000000    -7.253000000    -3.132000000
O    -5.290000000    -3.328000000    -1.256000000
H    -5.767000000    -2.916000000    -0.535000000
H    -4.416000000    -3.494000000    -0.901000000
O    -1.044000000    -7.167000000     2.031000000
H    -0.607000000    -7.786000000     2.617000000
H    -1.276000000    -6.428000000     2.593000000
O    -2.701000000    -8.366000000    -1.299000000
H    -2.865000000    -7.477000000    -1.612000000
H    -1.803000000    -8.341000000    -0.968000000
O    -2.216000000    -5.087000000     6.633000000
H    -2.653000000    -4.391000000     7.123000000
H    -2.441000000    -5.890000000     7.103000000
O    -6.781000000    -2.226000000     6.233000000
H    -6.312000000    -2.740000000     5.575000000
H    -7.505000000    -1.825000000     5.752000000
O    -4.154000000    -6.203000000     1.755000000
H    -3.848000000    -5.362000000     1.413000000
H    -3.434000000    -6.514000000     2.304000000
O    -6.614000000    -3.405000000     1.287000000
H    -5.866000000    -3.539000000     1.869000000
H    -7.274000000    -4.024000000     1.598000000
