201
-1217.85273
C    -0.687000000     3.917000000     4.286000000
H    -0.928000000     4.736000000     3.613000000
C     0.483000000     3.216000000     3.961000000
C     0.838000000     2.208000000     4.757000000
H     1.806000000     1.779000000     4.511000000
C     1.240000000     3.471000000     2.627000000
O     0.847000000     4.691000000     1.922000000
H     0.952000000     2.644000000     1.962000000
O     2.673000000     3.480000000     2.795000000
C     3.349000000     2.839000000     1.716000000
C     3.757000000     1.578000000     1.884000000
H     3.597000000     1.128000000     2.861000000
C     4.359000000     0.801000000     0.936000000
O     4.643000000    -0.492000000     1.293000000
C     4.556000000     1.324000000    -0.327000000
C     5.296000000     0.485000000    -1.354000000
H     5.839000000     1.072000000    -2.098000000
C     4.309000000    -0.408000000    -2.092000000
C     3.655000000     0.155000000    -3.206000000
H     4.127000000     1.059000000    -3.583000000
H     6.055000000    -0.088000000    -0.817000000
C     4.145000000     2.655000000    -0.568000000
H     4.302000000     3.084000000    -1.554000000
C     3.492000000     3.368000000     0.460000000
C     3.021000000     4.809000000     0.145000000
H     3.684000000     5.202000000    -0.628000000
H     3.163000000     5.422000000     1.038000000
C     1.614000000     4.570000000    -0.372000000
C     1.318000000     4.485000000    -1.731000000
H     2.070000000     4.651000000    -2.498000000
C     0.563000000     4.537000000     0.563000000
C    -0.726000000     4.228000000     0.190000000
H    -1.505000000     4.211000000     0.948000000
C    -1.002000000     4.139000000    -1.191000000
O    -2.310000000     3.926000000    -1.462000000
C    -2.694000000     2.551000000    -1.892000000
C    -4.003000000     2.198000000    -1.213000000
C    -4.791000000     1.164000000    -1.804000000
H    -4.626000000     0.648000000    -2.746000000
C    -4.306000000     2.636000000     0.135000000
H    -3.564000000     3.289000000     0.587000000
O    -2.708000000     2.543000000    -3.357000000
H    -1.886000000     1.963000000    -1.430000000
C     0.024000000     4.222000000    -2.125000000
C    -0.328000000     4.166000000    -3.552000000
H     0.243000000     4.853000000    -4.179000000
H    -1.325000000     4.579000000    -3.718000000
C    -0.395000000     2.736000000    -4.030000000
C     0.792000000     2.067000000    -4.456000000
H     1.730000000     2.600000000    -4.592000000
C    -1.598000000     1.974000000    -3.881000000
C    -1.621000000     0.637000000    -4.064000000
H    -2.573000000     0.121000000    -3.979000000
C    -0.466000000     0.005000000    -4.455000000
O    -0.522000000    -1.269000000    -4.656000000
C    -0.014000000    -2.156000000    -3.641000000
C    -0.890000000    -3.327000000    -3.335000000
C    -2.260000000    -3.225000000    -3.467000000
H    -2.683000000    -2.398000000    -4.031000000
C    -0.354000000    -4.379000000    -2.630000000
H     0.703000000    -4.391000000    -2.380000000
O     1.304000000    -2.506000000    -3.962000000
H     0.033000000    -1.567000000    -2.713000000
C     0.734000000     0.715000000    -4.650000000
C     1.948000000    -0.026000000    -5.035000000
H     2.618000000     0.570000000    -5.657000000
H     1.774000000    -0.788000000    -5.798000000
C     2.624000000    -0.554000000    -3.841000000
C     2.286000000    -1.821000000    -3.355000000
C     2.958000000    -2.409000000    -2.260000000
H     2.680000000    -3.377000000    -1.850000000
C     3.944000000    -1.678000000    -1.620000000
O     4.479000000    -2.130000000    -0.513000000
C     3.898000000    -1.585000000     0.716000000
H     2.859000000    -1.255000000     0.573000000
C     3.737000000    -2.695000000     1.715000000
C     3.441000000    -2.400000000     3.032000000
H     3.607000000    -1.387000000     3.389000000
C     3.773000000    -4.079000000     1.260000000
H     4.019000000    -4.347000000     0.236000000
C     3.233000000    -5.003000000     2.081000000
O     2.996000000    -6.336000000     1.655000000
C     2.860000000    -4.720000000     3.378000000
H     2.662000000    -5.537000000     4.068000000
C     3.060000000    -3.435000000     3.836000000
O     2.620000000    -3.176000000     5.159000000
C     2.610000000    -1.981000000     5.742000000
C     1.444000000    -1.180000000     5.869000000
H     0.481000000    -1.497000000     5.477000000
C     3.880000000    -1.430000000     6.113000000
H     4.764000000    -2.055000000     6.018000000
C     3.944000000    -0.236000000     6.831000000
H     4.941000000     0.073000000     7.134000000
C     2.738000000     0.483000000     6.953000000
H     2.740000000     1.419000000     7.507000000
C     1.557000000     0.072000000     6.483000000
O     0.299000000     0.771000000     6.611000000
C     0.012000000     1.792000000     5.827000000
C    -1.143000000     2.481000000     6.099000000
H    -1.850000000     2.044000000     6.798000000
C    -1.528000000     3.525000000     5.304000000
O    -2.783000000     4.091000000     5.509000000
C    -3.693000000     4.250000000     4.534000000
C    -4.283000000     3.211000000     3.860000000
H    -4.032000000     2.200000000     4.170000000
C    -3.937000000     5.567000000     4.150000000
H    -3.365000000     6.391000000     4.569000000
C    -4.887000000     5.829000000     3.156000000
H    -5.198000000     6.853000000     2.962000000
C    -5.420000000     4.757000000     2.440000000
H    -6.070000000     4.912000000     1.583000000
C    -5.097000000     3.482000000     2.757000000
O    -5.738000000     2.438000000     2.171000000
C    -5.435000000     2.128000000     0.828000000
C    -6.245000000     1.218000000     0.131000000
H    -7.102000000     0.897000000     0.718000000
C    -5.940000000     0.671000000    -1.125000000
O    -6.757000000    -0.266000000    -1.782000000
C    -6.357000000    -1.113000000    -2.784000000
C    -5.917000000    -2.424000000    -2.505000000
H    -6.024000000    -2.752000000    -1.474000000
C    -6.516000000    -0.816000000    -4.138000000
H    -7.080000000     0.077000000    -4.395000000
C    -5.879000000    -1.504000000    -5.156000000
H    -5.919000000    -1.201000000    -6.199000000
C    -5.189000000    -2.685000000    -4.819000000
H    -4.728000000    -3.242000000    -5.631000000
C    -5.248000000    -3.148000000    -3.510000000
O    -4.544000000    -4.282000000    -3.215000000
C    -3.096000000    -4.301000000    -3.061000000
C    -2.447000000    -5.450000000    -2.524000000
H    -3.016000000    -6.281000000    -2.114000000
C    -1.114000000    -5.511000000    -2.240000000
O    -0.549000000    -6.556000000    -1.461000000
C     0.763000000    -6.828000000    -1.197000000
C     1.545000000    -7.564000000    -2.101000000
H     1.108000000    -8.038000000    -2.975000000
C     2.866000000    -7.826000000    -1.798000000
H     3.523000000    -8.401000000    -2.445000000
C     3.406000000    -7.358000000    -0.554000000
H     4.403000000    -7.695000000    -0.281000000
C     2.594000000    -6.729000000     0.365000000
C     1.254000000    -6.506000000     0.082000000
H     0.661000000    -5.966000000     0.815000000
O    -3.520000000    -3.457000000     5.164000000
H    -4.467000000    -3.355000000     5.255000000
H    -3.406000000    -4.349000000     4.833000000
O    -4.280000000    -0.844000000     5.358000000
H    -4.702000000    -0.812000000     4.500000000
H    -3.691000000    -1.597000000     5.308000000
O    -3.787000000    -8.564000000     3.873000000
H    -4.007000000    -8.834000000     2.982000000
H    -4.007000000    -7.633000000     3.903000000
O    -5.960000000    -4.606000000     2.766000000
H    -6.570000000    -5.335000000     2.656000000
H    -5.421000000    -4.623000000     1.975000000
O    -2.288000000    -7.818000000     1.083000000
H    -1.593000000    -7.683000000     0.440000000
H    -2.544000000    -6.935000000     1.349000000
O    -4.993000000    -1.602000000     2.772000000
H    -4.147000000    -1.179000000     2.623000000
H    -5.142000000    -2.124000000     1.984000000
O    -3.729000000    -7.378000000     6.278000000
H    -3.991000000    -6.749000000     5.605000000
H    -3.366000000    -8.116000000     5.788000000
O    -0.781000000    -3.719000000     6.165000000
H    -1.412000000    -3.164000000     5.705000000
H    -1.310000000    -4.214000000     6.791000000
O    -8.183000000    -4.712000000    -1.622000000
H    -7.330000000    -5.146000000    -1.609000000
H    -8.259000000    -4.307000000    -0.758000000
O    -4.305000000    -9.573000000     1.125000000
H    -4.678000000    -9.889000000     0.302000000
H    -3.474000000    -9.170000000     0.872000000
O    -6.325000000    -3.226000000     5.008000000
H    -7.019000000    -3.830000000     5.273000000
H    -6.065000000    -3.528000000     4.137000000
O    -5.811000000    -5.818000000    -0.788000000
H    -5.101000000    -5.279000000    -0.439000000
H    -5.807000000    -6.604000000    -0.242000000
O    -4.948000000    -7.052000000    -3.634000000
H    -5.657000000    -7.695000000    -3.662000000
H    -5.180000000    -6.472000000    -2.909000000
O    -7.669000000    -1.272000000     2.656000000
H    -6.724000000    -1.166000000     2.541000000
H    -7.915000000    -0.578000000     3.267000000
O     1.789000000    -8.010000000     3.091000000
H     2.408000000    -7.443000000     2.631000000
H     1.141000000    -7.408000000     3.458000000
O    -0.210000000    -6.378000000     3.719000000
H    -0.684000000    -6.086000000     2.940000000
H    -0.546000000    -5.825000000     4.425000000
O    -3.897000000    -5.883000000     3.926000000
H    -3.171000000    -5.682000000     3.335000000
H    -4.585000000    -5.265000000     3.680000000
O    -8.222000000    -3.352000000     0.758000000
H    -8.063000000    -4.174000000     1.222000000
H    -8.054000000    -2.672000000     1.411000000
O    -2.721000000    -0.329000000     2.417000000
H    -2.316000000    -0.378000000     1.551000000
H    -2.206000000     0.329000000     2.885000000
