201
-1225.74157
C    -0.871000000     3.288000000     4.210000000
H    -1.328000000     4.041000000     3.573000000
C     0.304000000     2.722000000     3.804000000
C     0.858000000     1.715000000     4.600000000
H     1.675000000     1.162000000     4.143000000
C     0.984000000     3.158000000     2.538000000
O     0.430000000     4.442000000     2.140000000
H     0.789000000     2.372000000     1.795000000
O     2.417000000     3.247000000     2.654000000
C     3.149000000     2.657000000     1.697000000
C     3.661000000     1.384000000     1.825000000
H     3.416000000     0.853000000     2.742000000
C     4.251000000     0.686000000     0.756000000
O     4.639000000    -0.627000000     0.935000000
C     4.479000000     1.361000000    -0.440000000
C     5.331000000     0.628000000    -1.586000000
H     5.776000000     1.451000000    -2.150000000
C     4.384000000    -0.180000000    -2.390000000
C     3.630000000     0.440000000    -3.304000000
H     3.753000000     1.506000000    -3.478000000
H     6.080000000    -0.056000000    -1.181000000
C     4.069000000     2.680000000    -0.557000000
H     4.285000000     3.196000000    -1.489000000
C     3.386000000     3.331000000     0.514000000
C     2.735000000     4.711000000     0.292000000
H     3.350000000     5.185000000    -0.475000000
H     2.893000000     5.303000000     1.196000000
C     1.227000000     4.746000000    -0.112000000
C     0.949000000     4.712000000    -1.454000000
H     1.726000000     4.929000000    -2.182000000
C     0.235000000     4.630000000     0.826000000
C    -1.067000000     4.395000000     0.434000000
H    -1.829000000     4.277000000     1.200000000
C    -1.339000000     4.366000000    -0.911000000
O    -2.614000000     3.954000000    -1.196000000
C    -2.798000000     2.593000000    -1.589000000
C    -3.857000000     1.938000000    -0.753000000
C    -4.479000000     0.730000000    -1.221000000
H    -4.171000000     0.397000000    -2.209000000
C    -4.405000000     2.529000000     0.382000000
H    -4.059000000     3.508000000     0.705000000
O    -2.951000000     2.387000000    -3.037000000
H    -1.909000000     1.969000000    -1.416000000
C    -0.399000000     4.539000000    -1.849000000
C    -0.710000000     4.424000000    -3.435000000
H    -0.046000000     5.032000000    -4.053000000
H    -1.715000000     4.847000000    -3.490000000
C    -0.706000000     2.958000000    -3.800000000
C     0.478000000     2.408000000    -4.260000000
H     1.383000000     2.972000000    -4.471000000
C    -1.805000000     2.145000000    -3.782000000
C    -1.793000000     0.793000000    -4.188000000
H    -2.584000000     0.074000000    -3.988000000
C    -0.568000000     0.252000000    -4.590000000
O    -0.483000000    -1.066000000    -4.843000000
C     0.080000000    -1.937000000    -3.914000000
C    -0.812000000    -3.154000000    -3.526000000
C    -2.145000000    -3.171000000    -3.861000000
H    -2.541000000    -2.427000000    -4.549000000
C    -0.290000000    -4.153000000    -2.710000000
H     0.774000000    -4.230000000    -2.499000000
O     1.389000000    -2.325000000    -4.364000000
H     0.215000000    -1.324000000    -3.010000000
C     0.604000000     1.049000000    -4.613000000
C     1.913000000     0.456000000    -5.104000000
H     2.557000000     1.230000000    -5.528000000
H     1.663000000    -0.212000000    -5.930000000
C     2.682000000    -0.305000000    -4.020000000
C     2.478000000    -1.671000000    -3.850000000
C     3.341000000    -2.301000000    -2.893000000
H     3.108000000    -3.312000000    -2.570000000
C     4.206000000    -1.541000000    -2.071000000
O     4.499000000    -2.198000000    -0.919000000
C     3.872000000    -1.798000000     0.272000000
H     2.864000000    -1.429000000     0.032000000
C     3.712000000    -2.881000000     1.274000000
C     3.652000000    -2.529000000     2.667000000
H     3.422000000    -1.520000000     2.999000000
C     3.721000000    -4.219000000     0.932000000
H     3.818000000    -4.484000000    -0.118000000
C     3.619000000    -5.217000000     1.876000000
O     3.320000000    -6.495000000     1.577000000
C     3.649000000    -4.874000000     3.192000000
H     3.667000000    -5.736000000     3.853000000
C     3.641000000    -3.552000000     3.595000000
O     3.602000000    -3.273000000     4.923000000
C     3.388000000    -2.019000000     5.501000000
C     2.138000000    -1.512000000     5.735000000
H     1.313000000    -2.158000000     5.444000000
C     4.547000000    -1.249000000     5.684000000
H     5.492000000    -1.709000000     5.405000000
C     4.419000000     0.088000000     6.165000000
H     5.316000000     0.699000000     6.222000000
C     3.178000000     0.625000000     6.448000000
H     3.008000000     1.657000000     6.744000000
C     2.039000000    -0.155000000     6.283000000
O     0.773000000     0.252000000     6.559000000
C     0.207000000     1.258000000     5.766000000
C    -1.019000000     1.837000000     6.142000000
H    -1.582000000     1.405000000     6.966000000
C    -1.585000000     2.788000000     5.285000000
O    -2.745000000     3.461000000     5.727000000
C    -3.543000000     3.947000000     4.736000000
C    -4.246000000     3.020000000     3.987000000
H    -4.165000000     1.960000000     4.216000000
C    -3.725000000     5.312000000     4.533000000
H    -3.095000000     6.017000000     5.069000000
C    -4.545000000     5.793000000     3.529000000
H    -4.550000000     6.856000000     3.305000000
C    -5.369000000     4.888000000     2.855000000
H    -6.048000000     5.242000000     2.082000000
C    -5.204000000     3.524000000     3.037000000
O    -5.860000000     2.601000000     2.234000000
C    -5.419000000     1.972000000     1.101000000
C    -6.070000000     0.847000000     0.641000000
H    -6.959000000     0.424000000     1.103000000
C    -5.604000000     0.273000000    -0.573000000
O    -6.387000000    -0.692000000    -1.116000000
C    -6.104000000    -1.250000000    -2.308000000
C    -5.335000000    -2.441000000    -2.385000000
H    -4.904000000    -2.724000000    -1.429000000
C    -6.764000000    -0.696000000    -3.355000000
H    -7.242000000     0.273000000    -3.235000000
C    -6.571000000    -1.319000000    -4.627000000
H    -6.971000000    -0.748000000    -5.461000000
C    -5.828000000    -2.529000000    -4.699000000
H    -5.688000000    -3.012000000    -5.662000000
C    -5.206000000    -3.163000000    -3.613000000
O    -4.372000000    -4.258000000    -3.775000000
C    -3.023000000    -4.185000000    -3.409000000
C    -2.534000000    -5.123000000    -2.501000000
H    -3.120000000    -5.977000000    -2.171000000
C    -1.152000000    -5.087000000    -2.152000000
O    -0.680000000    -5.904000000    -1.129000000
C     0.529000000    -6.437000000    -0.972000000
C     1.072000000    -7.270000000    -1.944000000
H     0.438000000    -7.550000000    -2.781000000
C     2.363000000    -7.750000000    -1.767000000
H     2.844000000    -8.355000000    -2.531000000
C     3.006000000    -7.651000000    -0.486000000
H     4.007000000    -8.066000000    -0.396000000
C     2.513000000    -6.794000000     0.448000000
C     1.261000000    -6.235000000     0.226000000
H     0.851000000    -5.600000000     1.007000000
O    -3.317000000    -3.668000000     6.218000000
H    -3.622000000    -4.300000000     6.869000000
H    -3.318000000    -4.153000000     5.393000000
O    -4.219000000    -0.933000000     5.995000000
H    -4.326000000    -1.148000000     5.068000000
H    -3.853000000    -1.728000000     6.384000000
O    -2.011000000    -8.795000000     3.942000000
H    -2.822000000    -9.145000000     3.572000000
H    -1.774000000    -8.073000000     3.360000000
O    -5.650000000    -3.368000000     1.882000000
H    -6.391000000    -3.969000000     1.816000000
H    -5.030000000    -3.679000000     1.222000000
O    -6.394000000    -7.846000000     0.405000000
H    -6.845000000    -8.671000000     0.587000000
H    -6.915000000    -7.184000000     0.860000000
O    -2.316000000    -7.180000000     0.657000000
H    -1.448000000    -7.433000000     0.343000000
H    -2.225000000    -6.258000000     0.898000000
O    -5.072000000    -0.986000000     3.288000000
H    -4.296000000    -0.501000000     3.008000000
H    -5.037000000    -1.802000000     2.788000000
O    -0.915000000    -3.048000000     7.039000000
H    -1.716000000    -3.230000000     6.548000000
H    -1.056000000    -3.462000000     7.890000000
O    -5.585000000    -6.623000000     3.376000000
H    -6.526000000    -6.461000000     3.312000000
H    -5.430000000    -7.367000000     2.795000000
O    -7.753000000    -3.998000000    -1.640000000
H    -6.859000000    -4.342000000    -1.641000000
H    -7.861000000    -3.616000000    -0.769000000
O    -4.079000000    -8.939000000     1.712000000
H    -4.904000000    -8.761000000     1.260000000
H    -3.416000000    -8.493000000     1.185000000
O    -5.050000000    -5.615000000    -0.590000000
H    -4.501000000    -5.245000000     0.101000000
H    -5.275000000    -6.490000000    -0.274000000
O    -1.792000000    -8.605000000    -2.206000000
H    -1.677000000    -7.664000000    -2.071000000
H    -2.646000000    -8.683000000    -2.632000000
O    -6.101000000    -6.592000000    -2.890000000
H    -6.408000000    -6.473000000    -1.991000000
H    -5.733000000    -5.742000000    -3.132000000
O    -6.673000000    -4.501000000     5.117000000
H    -6.460000000    -3.736000000     4.583000000
H    -7.579000000    -4.708000000     4.889000000
O     1.628000000    -8.823000000     2.812000000
H     2.287000000    -8.147000000     2.655000000
H     0.794000000    -8.354000000     2.790000000
O    -0.481000000    -6.709000000     3.029000000
H     0.029000000    -6.179000000     3.642000000
H    -1.054000000    -6.081000000     2.588000000
O    -3.454000000    -5.027000000     3.954000000
H    -3.070000000    -4.982000000     3.079000000
H    -4.277000000    -5.500000000     3.831000000
O    -2.449000000    -0.078000000     3.103000000
H    -1.811000000     0.273000000     2.481000000
H    -1.984000000    -0.091000000     3.940000000
